# RIV package for  MODFLOW-2005, generated by Flopy.
         1        53
         1         0 # stress period 1
         2         1         1             0.2       1.3333334             0.2
         1         0 # stress period 2
         2         1         1             0.2       1.3333334             0.2
         1         0 # stress period 3
         2         1         1             0.2       1.3333334             0.2
         1         0 # stress period 4
         2         1         1             0.2       1.3333334             0.2
         1         0 # stress period 5
         2         1         1             0.2       1.3333334             0.2
         1         0 # stress period 6
         2         1         1             0.2       1.3333334             0.2
         1         0 # stress period 7
         2         1         1             0.2       1.3333334             0.2
         1         0 # stress period 8
         2         1         1             0.2       1.3333334             0.2
         1         0 # stress period 9
         2         1         1             0.2       1.3333334             0.2
         1         0 # stress period 10
         2         1         1             0.2       1.3333334             0.2
         1         0 # stress period 11
         2         1         1             0.2       1.3333334             0.2
         1         0 # stress period 12
         2         1         1             0.2       1.3333334             0.2
         1         0 # stress period 13
         2         1         1             0.2       1.3333334             0.2
         1         0 # stress period 14
         2         1         1             0.2       1.3333334             0.2
         1         0 # stress period 15
         2         1         1             0.2       1.3333334             0.2
         1         0 # stress period 16
         2         1         1             0.2       1.3333334             0.2
         1         0 # stress period 17
         2         1         1             0.2       1.3333334             0.2
         1         0 # stress period 18
         2         1         1             0.2       1.3333334             0.2
         1         0 # stress period 19
         2         1         1             0.2       1.3333334             0.2
         1         0 # stress period 20
         2         1         1             0.2       1.3333334             0.2
         1         0 # stress period 21
         2         1         1             0.2       1.3333334             0.2
         1         0 # stress period 22
         2         1         1             0.2       1.3333334             0.2
         1         0 # stress period 23
         2         1         1             0.2       1.3333334             0.2
         1         0 # stress period 24
         2         1         1             0.2       1.3333334             0.2
         1         0 # stress period 25
         2         1         1             0.2       1.3333334             0.2
         1         0 # stress period 26
         2         1         1             0.2       1.3333334             0.2
         1         0 # stress period 27
         2         1         1             0.2       1.3333334             0.2
         1         0 # stress period 28
         2         1         1             0.2       1.3333334             0.2
         1         0 # stress period 29
         2         1         1             0.2       1.3333334             0.2
         1         0 # stress period 30
         2         1         1             0.2       1.3333334             0.2
         1         0 # stress period 31
         2         1         1             0.2       1.3333334             0.2
         1         0 # stress period 32
         2         1         1             0.2       1.3333334             0.2
         1         0 # stress period 33
         2         1         1             0.2       1.3333334             0.2
         1         0 # stress period 34
         2         1         1             0.2       1.3333334             0.2
         1         0 # stress period 35
         2         1         1             0.2       1.3333334             0.2
         1         0 # stress period 36
         2         1         1             0.2       1.3333334             0.2
         1         0 # stress period 37
         2         1         1             0.2       1.3333334             0.2
         1         0 # stress period 38
         2         1         1             0.2       1.3333334             0.2
         1         0 # stress period 39
         2         1         1             0.2       1.3333334             0.2
         1         0 # stress period 40
         2         1         1             0.2       1.3333334             0.2
         1         0 # stress period 41
         2         1         1             0.2       1.3333334             0.2
         1         0 # stress period 42
         2         1         1             0.2       1.3333334             0.2
         1         0 # stress period 43
         2         1         1             0.2       1.3333334             0.2
         1         0 # stress period 44
         2         1         1             0.2       1.3333334             0.2
         1         0 # stress period 45
         2         1         1             0.2       1.3333334             0.2
         1         0 # stress period 46
         2         1         1             0.2       1.3333334             0.2
         1         0 # stress period 47
         2         1         1             0.2       1.3333334             0.2
         1         0 # stress period 48
         2         1         1             0.2       1.3333334             0.2
         1         0 # stress period 49
         2         1         1             0.2       1.3333334             0.2
         1         0 # stress period 50
         2         1         1             0.2       1.3333334             0.2
         1         0 # stress period 51
         2         1         1             0.2       1.3333334             0.2
         1         0 # stress period 52
         2         1         1             0.2       1.3333334             0.2
         1         0 # stress period 53
         2         1         1             0.2       1.3333334             0.2
         1         0 # stress period 54
         2         1         1             0.2       1.3333334             0.2
         1         0 # stress period 55
         2         1         1             0.2       1.3333334             0.2
         1         0 # stress period 56
         2         1         1             0.2       1.3333334             0.2
         1         0 # stress period 57
         2         1         1             0.2       1.3333334             0.2
         1         0 # stress period 58
         2         1         1             0.2       1.3333334             0.2
         1         0 # stress period 59
         2         1         1             0.2       1.3333334             0.2
         1         0 # stress period 60
         2         1         1             0.2       1.3333334             0.2
         1         0 # stress period 61
         2         1         1             0.2       1.3333334             0.2
         1         0 # stress period 62
         2         1         1             0.2       1.3333334             0.2
         1         0 # stress period 63
         2         1         1             0.2       1.3333334             0.2
         1         0 # stress period 64
         2         1         1             0.2       1.3333334             0.2
         1         0 # stress period 65
         2         1         1             0.2       1.3333334             0.2
         1         0 # stress period 66
         2         1         1             0.2       1.3333334             0.2
         1         0 # stress period 67
         2         1         1             0.2       1.3333334             0.2
         1         0 # stress period 68
         2         1         1             0.2       1.3333334             0.2
         1         0 # stress period 69
         2         1         1             0.2       1.3333334             0.2
         1         0 # stress period 70
         2         1         1             0.2       1.3333334             0.2
         1         0 # stress period 71
         2         1         1             0.2       1.3333334             0.2
         1         0 # stress period 72
         2         1         1             0.2       1.3333334             0.2
         1         0 # stress period 73
         2         1         1             0.2       1.3333334             0.2
         1         0 # stress period 74
         2         1         1             0.2       1.3333334             0.2
         1         0 # stress period 75
         2         1         1             0.2       1.3333334             0.2
         1         0 # stress period 76
         2         1         1             0.2       1.3333334             0.2
         1         0 # stress period 77
         2         1         1             0.2       1.3333334             0.2
         1         0 # stress period 78
         2         1         1             0.2       1.3333334             0.2
         1         0 # stress period 79
         2         1         1             0.2       1.3333334             0.2
         1         0 # stress period 80
         2         1         1             0.2       1.3333334             0.2
         1         0 # stress period 81
         2         1         1             0.2       1.3333334             0.2
         1         0 # stress period 82
         2         1         1             0.2       1.3333334             0.2
         1         0 # stress period 83
         2         1         1             0.2       1.3333334             0.2
         1         0 # stress period 84
         2         1         1             0.2       1.3333334             0.2
         1         0 # stress period 85
         2         1         1             0.2       1.3333334             0.2
         1         0 # stress period 86
         2         1         1             0.2       1.3333334             0.2
         1         0 # stress period 87
         2         1         1             0.2       1.3333334             0.2
         1         0 # stress period 88
         2         1         1             0.2       1.3333334             0.2
         1         0 # stress period 89
         2         1         1             0.2       1.3333334             0.2
         1         0 # stress period 90
         2         1         1             0.2       1.3333334             0.2
         1         0 # stress period 91
         2         1         1             0.2       1.3333334             0.2
         1         0 # stress period 92
         2         1         1             0.2       1.3333334             0.2
         1         0 # stress period 93
         2         1         1             0.2       1.3333334             0.2
         1         0 # stress period 94
         2         1         1             0.2       1.3333334             0.2
         1         0 # stress period 95
         2         1         1             0.2       1.3333334             0.2
         1         0 # stress period 96
         2         1         1             0.2       1.3333334             0.2
         1         0 # stress period 97
         2         1         1             0.2       1.3333334             0.2
         1         0 # stress period 98
         2         1         1             0.2       1.3333334             0.2
         1         0 # stress period 99
         2         1         1             0.2       1.3333334             0.2
         1         0 # stress period 100
         2         1         1             0.2       1.3333334             0.2
         1         0 # stress period 101
         2         1         1             0.2       1.3333334             0.2
         1         0 # stress period 102
         2         1         1             0.2       1.3333334             0.2
         1         0 # stress period 103
         2         1         1             0.2       1.3333334             0.2
         1         0 # stress period 104
         2         1         1             0.2       1.3333334             0.2
         1         0 # stress period 105
         2         1         1             0.2       1.3333334             0.2
         1         0 # stress period 106
         2         1         1             0.2       1.3333334             0.2
         1         0 # stress period 107
         2         1         1             0.2       1.3333334             0.2
         1         0 # stress period 108
         2         1         1             0.2       1.3333334             0.2
         1         0 # stress period 109
         2         1         1             0.2       1.3333334             0.2
         1         0 # stress period 110
         2         1         1             0.2       1.3333334             0.2
         1         0 # stress period 111
         2         1         1             0.2       1.3333334             0.2
         1         0 # stress period 112
         2         1         1             0.2       1.3333334             0.2
         1         0 # stress period 113
         2         1         1             0.2       1.3333334             0.2
         1         0 # stress period 114
         2         1         1             0.2       1.3333334             0.2
         1         0 # stress period 115
         2         1         1             0.2       1.3333334             0.2
         1         0 # stress period 116
         2         1         1             0.2       1.3333334             0.2
         1         0 # stress period 117
         2         1         1             0.2       1.3333334             0.2
         1         0 # stress period 118
         2         1         1             0.2       1.3333334             0.2
         1         0 # stress period 119
         2         1         1             0.2       1.3333334             0.2
         1         0 # stress period 120
         2         1         1             0.2       1.3333334             0.2
         1         0 # stress period 121
         2         1         1             0.2       1.3333334             0.2
         1         0 # stress period 122
         2         1         1             0.2       1.3333334             0.2
         1         0 # stress period 123
         2         1         1             0.2       1.3333334             0.2
         1         0 # stress period 124
         2         1         1             0.2       1.3333334             0.2
         1         0 # stress period 125
         2         1         1             0.2       1.3333334             0.2
         1         0 # stress period 126
         2         1         1             0.2       1.3333334             0.2
         1         0 # stress period 127
         2         1         1             0.2       1.3333334             0.2
         1         0 # stress period 128
         2         1         1             0.2       1.3333334             0.2
         1         0 # stress period 129
         2         1         1             0.2       1.3333334             0.2
         1         0 # stress period 130
         2         1         1             0.2       1.3333334             0.2
         1         0 # stress period 131
         2         1         1             0.2       1.3333334             0.2
         1         0 # stress period 132
         2         1         1             0.2       1.3333334             0.2
         1         0 # stress period 133
         2         1         1             0.2       1.3333334             0.2
         1         0 # stress period 134
         2         1         1             0.2       1.3333334             0.2
         1         0 # stress period 135
         2         1         1             0.2       1.3333334             0.2
         1         0 # stress period 136
         2         1         1             0.2       1.3333334             0.2
         1         0 # stress period 137
         2         1         1             0.2       1.3333334             0.2
         1         0 # stress period 138
         2         1         1             0.2       1.3333334             0.2
         1         0 # stress period 139
         2         1         1             0.2       1.3333334             0.2
         1         0 # stress period 140
         2         1         1             0.2       1.3333334             0.2
         1         0 # stress period 141
         2         1         1             0.2       1.3333334             0.2
         1         0 # stress period 142
         2         1         1             0.2       1.3333334             0.2
         1         0 # stress period 143
         2         1         1             0.2       1.3333334             0.2
         1         0 # stress period 144
         2         1         1             0.2       1.3333334             0.2
         1         0 # stress period 145
         2         1         1             0.2       1.3333334             0.2
         1         0 # stress period 146
         2         1         1             0.2       1.3333334             0.2
         1         0 # stress period 147
         2         1         1             0.2       1.3333334             0.2
         1         0 # stress period 148
         2         1         1             0.2       1.3333334             0.2
         1         0 # stress period 149
         2         1         1             0.2       1.3333334             0.2
         1         0 # stress period 150
         2         1         1             0.2       1.3333334             0.2
         1         0 # stress period 151
         2         1         1             0.2       1.3333334             0.2
         1         0 # stress period 152
         2         1         1             0.2       1.3333334             0.2
         1         0 # stress period 153
         2         1         1             0.2       1.3333334             0.2
         1         0 # stress period 154
         2         1         1             0.2       1.3333334             0.2
         1         0 # stress period 155
         2         1         1             0.2       1.3333334             0.2
         1         0 # stress period 156
         2         1         1             0.2       1.3333334             0.2
         1         0 # stress period 157
         2         1         1             0.2       1.3333334             0.2
         1         0 # stress period 158
         2         1         1             0.2       1.3333334             0.2
         1         0 # stress period 159
         2         1         1             0.2       1.3333334             0.2
         1         0 # stress period 160
         2         1         1             0.2       1.3333334             0.2
         1         0 # stress period 161
         2         1         1             0.2       1.3333334             0.2
         1         0 # stress period 162
         2         1         1             0.2       1.3333334             0.2
         1         0 # stress period 163
         2         1         1             0.2       1.3333334             0.2
         1         0 # stress period 164
         2         1         1             0.2       1.3333334             0.2
         1         0 # stress period 165
         2         1         1             0.2       1.3333334             0.2
         1         0 # stress period 166
         2         1         1             0.2       1.3333334             0.2
         1         0 # stress period 167
         2         1         1             0.2       1.3333334             0.2
         1         0 # stress period 168
         2         1         1             0.2       1.3333334             0.2
         1         0 # stress period 169
         2         1         1             0.2       1.3333334             0.2
         1         0 # stress period 170
         2         1         1             0.2       1.3333334             0.2
         1         0 # stress period 171
         2         1         1             0.2       1.3333334             0.2
         1         0 # stress period 172
         2         1         1             0.2       1.3333334             0.2
         1         0 # stress period 173
         2         1         1             0.2       1.3333334             0.2
         1         0 # stress period 174
         2         1         1             0.2       1.3333334             0.2
         1         0 # stress period 175
         2         1         1             0.2       1.3333334             0.2
         1         0 # stress period 176
         2         1         1             0.2       1.3333334             0.2
         1         0 # stress period 177
         2         1         1             0.2       1.3333334             0.2
         1         0 # stress period 178
         2         1         1             0.2       1.3333334             0.2
         1         0 # stress period 179
         2         1         1             0.2       1.3333334             0.2
         1         0 # stress period 180
         2         1         1             0.2       1.3333334             0.2
         1         0 # stress period 181
         2         1         1             0.2       1.3333334             0.2
         1         0 # stress period 182
         2         1         1             0.2       1.3333334             0.2
         1         0 # stress period 183
         2         1         1             0.2       1.3333334             0.2
         1         0 # stress period 184
         2         1         1            -0.2       1.3333334            -0.2
         1         0 # stress period 185
         2         1         1            -0.2       1.3333334            -0.2
         1         0 # stress period 186
         2         1         1            -0.2       1.3333334            -0.2
         1         0 # stress period 187
         2         1         1            -0.2       1.3333334            -0.2
         1         0 # stress period 188
         2         1         1            -0.2       1.3333334            -0.2
         1         0 # stress period 189
         2         1         1            -0.2       1.3333334            -0.2
         1         0 # stress period 190
         2         1         1            -0.2       1.3333334            -0.2
         1         0 # stress period 191
         2         1         1            -0.2       1.3333334            -0.2
         1         0 # stress period 192
         2         1         1            -0.2       1.3333334            -0.2
         1         0 # stress period 193
         2         1         1            -0.2       1.3333334            -0.2
         1         0 # stress period 194
         2         1         1            -0.2       1.3333334            -0.2
         1         0 # stress period 195
         2         1         1            -0.2       1.3333334            -0.2
         1         0 # stress period 196
         2         1         1            -0.2       1.3333334            -0.2
         1         0 # stress period 197
         2         1         1            -0.2       1.3333334            -0.2
         1         0 # stress period 198
         2         1         1            -0.2       1.3333334            -0.2
         1         0 # stress period 199
         2         1         1            -0.2       1.3333334            -0.2
         1         0 # stress period 200
         2         1         1            -0.2       1.3333334            -0.2
         1         0 # stress period 201
         2         1         1            -0.2       1.3333334            -0.2
         1         0 # stress period 202
         2         1         1            -0.2       1.3333334            -0.2
         1         0 # stress period 203
         2         1         1            -0.2       1.3333334            -0.2
         1         0 # stress period 204
         2         1         1            -0.2       1.3333334            -0.2
         1         0 # stress period 205
         2         1         1            -0.2       1.3333334            -0.2
         1         0 # stress period 206
         2         1         1            -0.2       1.3333334            -0.2
         1         0 # stress period 207
         2         1         1            -0.2       1.3333334            -0.2
         1         0 # stress period 208
         2         1         1            -0.2       1.3333334            -0.2
         1         0 # stress period 209
         2         1         1            -0.2       1.3333334            -0.2
         1         0 # stress period 210
         2         1         1            -0.2       1.3333334            -0.2
         1         0 # stress period 211
         2         1         1            -0.2       1.3333334            -0.2
         1         0 # stress period 212
         2         1         1            -0.2       1.3333334            -0.2
         1         0 # stress period 213
         2         1         1            -0.2       1.3333334            -0.2
         1         0 # stress period 214
         2         1         1            -0.2       1.3333334            -0.2
         1         0 # stress period 215
         2         1         1            -0.2       1.3333334            -0.2
         1         0 # stress period 216
         2         1         1            -0.2       1.3333334            -0.2
         1         0 # stress period 217
         2         1         1            -0.2       1.3333334            -0.2
         1         0 # stress period 218
         2         1         1            -0.2       1.3333334            -0.2
         1         0 # stress period 219
         2         1         1            -0.2       1.3333334            -0.2
         1         0 # stress period 220
         2         1         1            -0.2       1.3333334            -0.2
         1         0 # stress period 221
         2         1         1            -0.2       1.3333334            -0.2
         1         0 # stress period 222
         2         1         1            -0.2       1.3333334            -0.2
         1         0 # stress period 223
         2         1         1            -0.2       1.3333334            -0.2
         1         0 # stress period 224
         2         1         1            -0.2       1.3333334            -0.2
         1         0 # stress period 225
         2         1         1            -0.2       1.3333334            -0.2
         1         0 # stress period 226
         2         1         1            -0.2       1.3333334            -0.2
         1         0 # stress period 227
         2         1         1            -0.2       1.3333334            -0.2
         1         0 # stress period 228
         2         1         1            -0.2       1.3333334            -0.2
         1         0 # stress period 229
         2         1         1            -0.2       1.3333334            -0.2
         1         0 # stress period 230
         2         1         1            -0.2       1.3333334            -0.2
         1         0 # stress period 231
         2         1         1            -0.2       1.3333334            -0.2
         1         0 # stress period 232
         2         1         1            -0.2       1.3333334            -0.2
         1         0 # stress period 233
         2         1         1            -0.2       1.3333334            -0.2
         1         0 # stress period 234
         2         1         1            -0.2       1.3333334            -0.2
         1         0 # stress period 235
         2         1         1            -0.2       1.3333334            -0.2
         1         0 # stress period 236
         2         1         1            -0.2       1.3333334            -0.2
         1         0 # stress period 237
         2         1         1            -0.2       1.3333334            -0.2
         1         0 # stress period 238
         2         1         1            -0.2       1.3333334            -0.2
         1         0 # stress period 239
         2         1         1            -0.2       1.3333334            -0.2
         1         0 # stress period 240
         2         1         1            -0.2       1.3333334            -0.2
         1         0 # stress period 241
         2         1         1            -0.2       1.3333334            -0.2
         1         0 # stress period 242
         2         1         1            -0.2       1.3333334            -0.2
         1         0 # stress period 243
         2         1         1            -0.2       1.3333334            -0.2
         1         0 # stress period 244
         2         1         1            -0.2       1.3333334            -0.2
         1         0 # stress period 245
         2         1         1            -0.2       1.3333334            -0.2
         1         0 # stress period 246
         2         1         1            -0.2       1.3333334            -0.2
         1         0 # stress period 247
         2         1         1            -0.2       1.3333334            -0.2
         1         0 # stress period 248
         2         1         1            -0.2       1.3333334            -0.2
         1         0 # stress period 249
         2         1         1            -0.2       1.3333334            -0.2
         1         0 # stress period 250
         2         1         1            -0.2       1.3333334            -0.2