# LPF package for  MODFLOW-2005, generated by Flopy.
        53    -1E+30         0  
         0         0         0         0
         0         0         0         0
   1.000000E-20   1.000000E-20   1.000000E-20   1.000000E-20
         0         0         0         0
         0         0         0         0
INTERNAL               1 (250E15.6) -1 #hk layer 1                    
   2.000000E+00   2.000000E+00   2.000000E+00   2.000000E+00   2.000000E+00   2.000000E+00   2.000000E+00   2.000000E+00   2.000000E+00   2.000000E+00   2.000000E+00   2.000000E+00   2.000000E+00   2.000000E+00   2.000000E+00   2.000000E+00   2.000000E+00   2.000000E+00   2.000000E+00   2.000000E+00   2.000000E+00   2.000000E+00   2.000000E+00   2.000000E+00   2.000000E+00   2.000000E+00   2.000000E+00   2.000000E+00   2.000000E+00   2.000000E+00   2.000000E+00   2.000000E+00   2.000000E+00   2.000000E+00   2.000000E+00   2.000000E+00   2.000000E+00   2.000000E+00   2.000000E+00   2.000000E+00   2.000000E+00   2.000000E+00   2.000000E+00   2.000000E+00   2.000000E+00   2.000000E+00   2.000000E+00   2.000000E+00   2.000000E+00   2.000000E+00   2.000000E+00   2.000000E+00   2.000000E+00   2.000000E+00   2.000000E+00   2.000000E+00   2.000000E+00   2.000000E+00   2.000000E+00   2.000000E+00   2.000000E+00   2.000000E+00   2.000000E+00   2.000000E+00   2.000000E+00   2.000000E+00   2.000000E+00   2.000000E+00   2.000000E+00   2.000000E+00   2.000000E+00   2.000000E+00   2.000000E+00   2.000000E+00   2.000000E+00   2.000000E+00   2.000000E+00   2.000000E+00   2.000000E+00   2.000000E+00   2.000000E+00   2.000000E+00   2.000000E+00   2.000000E+00   2.000000E+00   2.000000E+00   2.000000E+00   2.000000E+00   2.000000E+00   2.000000E+00   2.000000E+00   2.000000E+00   2.000000E+00   2.000000E+00   2.000000E+00   2.000000E+00   2.000000E+00   2.000000E+00   2.000000E+00   2.000000E+00   2.000000E+00   2.000000E+00   2.000000E+00   2.000000E+00   2.000000E+00   2.000000E+00   2.000000E+00   2.000000E+00   2.000000E+00   2.000000E+00   2.000000E+00   2.000000E+00   2.000000E+00   2.000000E+00   2.000000E+00   2.000000E+00   2.000000E+00   2.000000E+00   2.000000E+00   2.000000E+00   2.000000E+00   2.000000E+00   2.000000E+00   2.000000E+00   2.000000E+00   2.000000E+00   2.000000E+00   2.000000E+00   2.000000E+00   2.000000E+00   2.000000E+00   2.000000E+00   2.000000E+00   2.000000E+00   2.000000E+00   2.000000E+00   2.000000E+00   2.000000E+00   2.000000E+00   2.000000E+00   2.000000E+00   2.000000E+00   2.000000E+00   2.000000E+00   2.000000E+00   2.000000E+00   2.000000E+00   2.000000E+00   2.000000E+00   2.000000E+00   2.000000E+00   2.000000E+00   2.000000E+00   2.000000E+00   2.000000E+00   2.000000E+00   2.000000E+00   2.000000E+00   2.000000E+00   2.000000E+00   2.000000E+00   2.000000E+00   2.000000E+00   2.000000E+00   2.000000E+00   2.000000E+00   2.000000E+00   2.000000E+00   2.000000E+00   2.000000E+00   2.000000E+00   2.000000E+00   2.000000E+00   2.000000E+00   2.000000E+00   2.000000E+00   2.000000E+00   2.000000E+00   2.000000E+00   2.000000E+00   2.000000E+00   2.000000E+00   2.000000E+00   2.000000E+00   2.000000E+00   2.000000E+00   2.000000E+00   2.000000E+00   2.000000E+00   2.000000E+00   2.000000E+00   2.000000E+00   2.000000E+00   2.000000E+00   2.000000E+00   2.000000E+00   2.000000E+00   2.000000E+00   2.000000E+00   2.000000E+00   2.000000E+00   2.000000E+00   2.000000E+00   2.000000E+00   2.000000E+00   2.000000E+00   2.000000E+00   2.000000E+00   2.000000E+00   2.000000E+00   2.000000E+00   2.000000E+00   2.000000E+00   2.000000E+00   2.000000E+00   2.000000E+00   2.000000E+00   2.000000E+00   2.000000E+00   2.000000E+00   2.000000E+00   2.000000E+00   2.000000E+00   2.000000E+00   2.000000E+00   2.000000E+00   2.000000E+00   2.000000E+00   2.000000E+00   2.000000E+00   2.000000E+00   2.000000E+00   2.000000E+00   2.000000E+00   2.000000E+00   2.000000E+00   2.000000E+00   2.000000E+00   2.000000E+00   2.000000E+00   2.000000E+00   2.000000E+00   2.000000E+00   2.000000E+00   2.000000E+00   2.000000E+00   2.000000E+00   2.000000E+00   2.000000E+00   2.000000E+00
INTERNAL               1 (250E15.6) -1 #vka1                          
   2.000000E-01   2.000000E-01   2.000000E-01   2.000000E-01   2.000000E-01   2.000000E-01   2.000000E-01   2.000000E-01   2.000000E-01   2.000000E-01   2.000000E-01   2.000000E-01   2.000000E-01   2.000000E-01   2.000000E-01   2.000000E-01   2.000000E-01   2.000000E-01   2.000000E-01   2.000000E-01   2.000000E-01   2.000000E-01   2.000000E-01   2.000000E-01   2.000000E-01   2.000000E-01   2.000000E-01   2.000000E-01   2.000000E-01   2.000000E-01   2.000000E-01   2.000000E-01   2.000000E-01   2.000000E-01   2.000000E-01   2.000000E-01   2.000000E-01   2.000000E-01   2.000000E-01   2.000000E-01   2.000000E-01   2.000000E-01   2.000000E-01   2.000000E-01   2.000000E-01   2.000000E-01   2.000000E-01   2.000000E-01   2.000000E-01   2.000000E-01   2.000000E-01   2.000000E-01   2.000000E-01   2.000000E-01   2.000000E-01   2.000000E-01   2.000000E-01   2.000000E-01   2.000000E-01   2.000000E-01   2.000000E-01   2.000000E-01   2.000000E-01   2.000000E-01   2.000000E-01   2.000000E-01   2.000000E-01   2.000000E-01   2.000000E-01   2.000000E-01   2.000000E-01   2.000000E-01   2.000000E-01   2.000000E-01   2.000000E-01   2.000000E-01   2.000000E-01   2.000000E-01   2.000000E-01   2.000000E-01   2.000000E-01   2.000000E-01   2.000000E-01   2.000000E-01   2.000000E-01   2.000000E-01   2.000000E-01   2.000000E-01   2.000000E-01   2.000000E-01   2.000000E-01   2.000000E-01   2.000000E-01   2.000000E-01   2.000000E-01   2.000000E-01   2.000000E-01   2.000000E-01   2.000000E-01   2.000000E-01   2.000000E-01   2.000000E-01   2.000000E-01   2.000000E-01   2.000000E-01   2.000000E-01   2.000000E-01   2.000000E-01   2.000000E-01   2.000000E-01   2.000000E-01   2.000000E-01   2.000000E-01   2.000000E-01   2.000000E-01   2.000000E-01   2.000000E-01   2.000000E-01   2.000000E-01   2.000000E-01   2.000000E-01   2.000000E-01   2.000000E-01   2.000000E-01   2.000000E-01   2.000000E-01   2.000000E-01   2.000000E-01   2.000000E-01   2.000000E-01   2.000000E-01   2.000000E-01   2.000000E-01   2.000000E-01   2.000000E-01   2.000000E-01   2.000000E-01   2.000000E-01   2.000000E-01   2.000000E-01   2.000000E-01   2.000000E-01   2.000000E-01   2.000000E-01   2.000000E-01   2.000000E-01   2.000000E-01   2.000000E-01   2.000000E-01   2.000000E-01   2.000000E-01   2.000000E-01   2.000000E-01   2.000000E-01   2.000000E-01   2.000000E-01   2.000000E-01   2.000000E-01   2.000000E-01   2.000000E-01   2.000000E-01   2.000000E-01   2.000000E-01   2.000000E-01   2.000000E-01   2.000000E-01   2.000000E-01   2.000000E-01   2.000000E-01   2.000000E-01   2.000000E-01   2.000000E-01   2.000000E-01   2.000000E-01   2.000000E-01   2.000000E-01   2.000000E-01   2.000000E-01   2.000000E-01   2.000000E-01   2.000000E-01   2.000000E-01   2.000000E-01   2.000000E-01   2.000000E-01   2.000000E-01   2.000000E-01   2.000000E-01   2.000000E-01   2.000000E-01   2.000000E-01   2.000000E-01   2.000000E-01   2.000000E-01   2.000000E-01   2.000000E-01   2.000000E-01   2.000000E-01   2.000000E-01   2.000000E-01   2.000000E-01   2.000000E-01   2.000000E-01   2.000000E-01   2.000000E-01   2.000000E-01   2.000000E-01   2.000000E-01   2.000000E-01   2.000000E-01   2.000000E-01   2.000000E-01   2.000000E-01   2.000000E-01   2.000000E-01   2.000000E-01   2.000000E-01   2.000000E-01   2.000000E-01   2.000000E-01   2.000000E-01   2.000000E-01   2.000000E-01   2.000000E-01   2.000000E-01   2.000000E-01   2.000000E-01   2.000000E-01   2.000000E-01   2.000000E-01   2.000000E-01   2.000000E-01   2.000000E-01   2.000000E-01   2.000000E-01   2.000000E-01   2.000000E-01   2.000000E-01   2.000000E-01   2.000000E-01   2.000000E-01   2.000000E-01   2.000000E-01   2.000000E-01   2.000000E-01   2.000000E-01   2.000000E-01   2.000000E-01   2.000000E-01   2.000000E-01
INTERNAL               1 (250E15.6) -1 #ss layer 1                    
   1.250000E-02   1.250000E-02   1.250000E-02   1.250000E-02   1.250000E-02   1.250000E-02   1.250000E-02   1.250000E-02   1.250000E-02   1.250000E-02   1.250000E-02   1.250000E-02   1.250000E-02   1.250000E-02   1.250000E-02   1.250000E-02   1.250000E-02   1.250000E-02   1.250000E-02   1.250000E-02   1.250000E-02   1.250000E-02   1.250000E-02   1.250000E-02   1.250000E-02   1.250000E-02   1.250000E-02   1.250000E-02   1.250000E-02   1.250000E-02   1.250000E-02   1.250000E-02   1.250000E-02   1.250000E-02   1.250000E-02   1.250000E-02   1.250000E-02   1.250000E-02   1.250000E-02   1.250000E-02   1.250000E-02   1.250000E-02   1.250000E-02   1.250000E-02   1.250000E-02   1.250000E-02   1.250000E-02   1.250000E-02   1.250000E-02   1.250000E-02   1.250000E-02   1.250000E-02   1.250000E-02   1.250000E-02   1.250000E-02   1.250000E-02   1.250000E-02   1.250000E-02   1.250000E-02   1.250000E-02   1.250000E-02   1.250000E-02   1.250000E-02   1.250000E-02   1.250000E-02   1.250000E-02   1.250000E-02   1.250000E-02   1.250000E-02   1.250000E-02   1.250000E-02   1.250000E-02   1.250000E-02   1.250000E-02   1.250000E-02   1.250000E-02   1.250000E-02   1.250000E-02   1.250000E-02   1.250000E-02   1.250000E-02   1.250000E-02   1.250000E-02   1.250000E-02   1.250000E-02   1.250000E-02   1.250000E-02   1.250000E-02   1.250000E-02   1.250000E-02   1.250000E-02   1.250000E-02   1.250000E-02   1.250000E-02   1.250000E-02   1.250000E-02   1.250000E-02   1.250000E-02   1.250000E-02   1.250000E-02   1.250000E-02   1.250000E-02   1.250000E-02   1.250000E-02   1.250000E-02   1.250000E-02   1.250000E-02   1.250000E-02   1.250000E-02   1.250000E-02   1.250000E-02   1.250000E-02   1.250000E-02   1.250000E-02   1.250000E-02   1.250000E-02   1.250000E-02   1.250000E-02   1.250000E-02   1.250000E-02   1.250000E-02   1.250000E-02   1.250000E-02   1.250000E-02   1.250000E-02   1.250000E-02   1.250000E-02   1.250000E-02   1.250000E-02   1.250000E-02   1.250000E-02   1.250000E-02   1.250000E-02   1.250000E-02   1.250000E-02   1.250000E-02   1.250000E-02   1.250000E-02   1.250000E-02   1.250000E-02   1.250000E-02   1.250000E-02   1.250000E-02   1.250000E-02   1.250000E-02   1.250000E-02   1.250000E-02   1.250000E-02   1.250000E-02   1.250000E-02   1.250000E-02   1.250000E-02   1.250000E-02   1.250000E-02   1.250000E-02   1.250000E-02   1.250000E-02   1.250000E-02   1.250000E-02   1.250000E-02   1.250000E-02   1.250000E-02   1.250000E-02   1.250000E-02   1.250000E-02   1.250000E-02   1.250000E-02   1.250000E-02   1.250000E-02   1.250000E-02   1.250000E-02   1.250000E-02   1.250000E-02   1.250000E-02   1.250000E-02   1.250000E-02   1.250000E-02   1.250000E-02   1.250000E-02   1.250000E-02   1.250000E-02   1.250000E-02   1.250000E-02   1.250000E-02   1.250000E-02   1.250000E-02   1.250000E-02   1.250000E-02   1.250000E-02   1.250000E-02   1.250000E-02   1.250000E-02   1.250000E-02   1.250000E-02   1.250000E-02   1.250000E-02   1.250000E-02   1.250000E-02   1.250000E-02   1.250000E-02   1.250000E-02   1.250000E-02   1.250000E-02   1.250000E-02   1.250000E-02   1.250000E-02   1.250000E-02   1.250000E-02   1.250000E-02   1.250000E-02   1.250000E-02   1.250000E-02   1.250000E-02   1.250000E-02   1.250000E-02   1.250000E-02   1.250000E-02   1.250000E-02   1.250000E-02   1.250000E-02   1.250000E-02   1.250000E-02   1.250000E-02   1.250000E-02   1.250000E-02   1.250000E-02   1.250000E-02   1.250000E-02   1.250000E-02   1.250000E-02   1.250000E-02   1.250000E-02   1.250000E-02   1.250000E-02   1.250000E-02   1.250000E-02   1.250000E-02   1.250000E-02   1.250000E-02   1.250000E-02   1.250000E-02   1.250000E-02   1.250000E-02   1.250000E-02   1.250000E-02   1.250000E-02   1.250000E-02   1.250000E-02   1.250000E-02   1.250000E-02
INTERNAL               1 (250E15.6) -1 #vkcb layer 1                  
   4.000000E-03   4.000000E-03   4.000000E-03   4.000000E-03   4.000000E-03   4.000000E-03   4.000000E-03   4.000000E-03   4.000000E-03   4.000000E-03   4.000000E-03   4.000000E-03   4.000000E-03   4.000000E-03   4.000000E-03   4.000000E-03   4.000000E-03   4.000000E-03   4.000000E-03   4.000000E-03   4.000000E-03   4.000000E-03   4.000000E-03   4.000000E-03   4.000000E-03   4.000000E-03   4.000000E-03   4.000000E-03   4.000000E-03   4.000000E-03   4.000000E-03   4.000000E-03   4.000000E-03   4.000000E-03   4.000000E-03   4.000000E-03   4.000000E-03   4.000000E-03   4.000000E-03   4.000000E-03   4.000000E-03   4.000000E-03   4.000000E-03   4.000000E-03   4.000000E-03   4.000000E-03   4.000000E-03   4.000000E-03   4.000000E-03   4.000000E-03   4.000000E-03   4.000000E-03   4.000000E-03   4.000000E-03   4.000000E-03   4.000000E-03   4.000000E-03   4.000000E-03   4.000000E-03   4.000000E-03   4.000000E-03   4.000000E-03   4.000000E-03   4.000000E-03   4.000000E-03   4.000000E-03   4.000000E-03   4.000000E-03   4.000000E-03   4.000000E-03   4.000000E-03   4.000000E-03   4.000000E-03   4.000000E-03   4.000000E-03   4.000000E-03   4.000000E-03   4.000000E-03   4.000000E-03   4.000000E-03   4.000000E-03   4.000000E-03   4.000000E-03   4.000000E-03   4.000000E-03   4.000000E-03   4.000000E-03   4.000000E-03   4.000000E-03   4.000000E-03   4.000000E-03   4.000000E-03   4.000000E-03   4.000000E-03   4.000000E-03   4.000000E-03   4.000000E-03   4.000000E-03   4.000000E-03   4.000000E-03   4.000000E-03   4.000000E-03   4.000000E-03   4.000000E-03   4.000000E-03   4.000000E-03   4.000000E-03   4.000000E-03   4.000000E-03   4.000000E-03   4.000000E-03   4.000000E-03   4.000000E-03   4.000000E-03   4.000000E-03   4.000000E-03   4.000000E-03   4.000000E-03   4.000000E-03   4.000000E-03   4.000000E-03   4.000000E-03   4.000000E-03   4.000000E-03   4.000000E-03   4.000000E-03   4.000000E-03   4.000000E-03   4.000000E-03   4.000000E-03   4.000000E-03   4.000000E-03   4.000000E-03   4.000000E-03   4.000000E-03   4.000000E-03   4.000000E-03   4.000000E-03   4.000000E-03   4.000000E-03   4.000000E-03   4.000000E-03   4.000000E-03   4.000000E-03   4.000000E-03   4.000000E-03   4.000000E-03   4.000000E-03   4.000000E-03   4.000000E-03   4.000000E-03   4.000000E-03   4.000000E-03   4.000000E-03   4.000000E-03   4.000000E-03   4.000000E-03   4.000000E-03   4.000000E-03   4.000000E-03   4.000000E-03   4.000000E-03   4.000000E-03   4.000000E-03   4.000000E-03   4.000000E-03   4.000000E-03   4.000000E-03   4.000000E-03   4.000000E-03   4.000000E-03   4.000000E-03   4.000000E-03   4.000000E-03   4.000000E-03   4.000000E-03   4.000000E-03   4.000000E-03   4.000000E-03   4.000000E-03   4.000000E-03   4.000000E-03   4.000000E-03   4.000000E-03   4.000000E-03   4.000000E-03   4.000000E-03   4.000000E-03   4.000000E-03   4.000000E-03   4.000000E-03   4.000000E-03   4.000000E-03   4.000000E-03   4.000000E-03   4.000000E-03   4.000000E-03   4.000000E-03   4.000000E-03   4.000000E-03   4.000000E-03   4.000000E-03   4.000000E-03   4.000000E-03   4.000000E-03   4.000000E-03   4.000000E-03   4.000000E-03   4.000000E-03   4.000000E-03   4.000000E-03   4.000000E-03   4.000000E-03   4.000000E-03   4.000000E-03   4.000000E-03   4.000000E-03   4.000000E-03   4.000000E-03   4.000000E-03   4.000000E-03   4.000000E-03   4.000000E-03   4.000000E-03   4.000000E-03   4.000000E-03   4.000000E-03   4.000000E-03   4.000000E-03   4.000000E-03   4.000000E-03   4.000000E-03   4.000000E-03   4.000000E-03   4.000000E-03   4.000000E-03   4.000000E-03   4.000000E-03   4.000000E-03   4.000000E-03   4.000000E-03   4.000000E-03   4.000000E-03   4.000000E-03   4.000000E-03   4.000000E-03   4.000000E-03   4.000000E-03   4.000000E-03   4.000000E-03
INTERNAL               1 (250E15.6) -1 #hk layer 2                    
   1.000000E+01   1.000000E+01   1.000000E+01   1.000000E+01   1.000000E+01   1.000000E+01   1.000000E+01   1.000000E+01   1.000000E+01   1.000000E+01   1.000000E+01   1.000000E+01   1.000000E+01   1.000000E+01   1.000000E+01   1.000000E+01   1.000000E+01   1.000000E+01   1.000000E+01   1.000000E+01   1.000000E+01   1.000000E+01   1.000000E+01   1.000000E+01   1.000000E+01   1.000000E+01   1.000000E+01   1.000000E+01   1.000000E+01   1.000000E+01   1.000000E+01   1.000000E+01   1.000000E+01   1.000000E+01   1.000000E+01   1.000000E+01   1.000000E+01   1.000000E+01   1.000000E+01   1.000000E+01   1.000000E+01   1.000000E+01   1.000000E+01   1.000000E+01   1.000000E+01   1.000000E+01   1.000000E+01   1.000000E+01   1.000000E+01   1.000000E+01   1.000000E+01   1.000000E+01   1.000000E+01   1.000000E+01   1.000000E+01   1.000000E+01   1.000000E+01   1.000000E+01   1.000000E+01   1.000000E+01   1.000000E+01   1.000000E+01   1.000000E+01   1.000000E+01   1.000000E+01   1.000000E+01   1.000000E+01   1.000000E+01   1.000000E+01   1.000000E+01   1.000000E+01   1.000000E+01   1.000000E+01   1.000000E+01   1.000000E+01   1.000000E+01   1.000000E+01   1.000000E+01   1.000000E+01   1.000000E+01   1.000000E+01   1.000000E+01   1.000000E+01   1.000000E+01   1.000000E+01   1.000000E+01   1.000000E+01   1.000000E+01   1.000000E+01   1.000000E+01   1.000000E+01   1.000000E+01   1.000000E+01   1.000000E+01   1.000000E+01   1.000000E+01   1.000000E+01   1.000000E+01   1.000000E+01   1.000000E+01   1.000000E+01   1.000000E+01   1.000000E+01   1.000000E+01   1.000000E+01   1.000000E+01   1.000000E+01   1.000000E+01   1.000000E+01   1.000000E+01   1.000000E+01   1.000000E+01   1.000000E+01   1.000000E+01   1.000000E+01   1.000000E+01   1.000000E+01   1.000000E+01   1.000000E+01   1.000000E+01   1.000000E+01   1.000000E+01   1.000000E+01   1.000000E+01   1.000000E+01   1.000000E+01   1.000000E+01   1.000000E+01   1.000000E+01   1.000000E+01   1.000000E+01   1.000000E+01   1.000000E+01   1.000000E+01   1.000000E+01   1.000000E+01   1.000000E+01   1.000000E+01   1.000000E+01   1.000000E+01   1.000000E+01   1.000000E+01   1.000000E+01   1.000000E+01   1.000000E+01   1.000000E+01   1.000000E+01   1.000000E+01   1.000000E+01   1.000000E+01   1.000000E+01   1.000000E+01   1.000000E+01   1.000000E+01   1.000000E+01   1.000000E+01   1.000000E+01   1.000000E+01   1.000000E+01   1.000000E+01   1.000000E+01   1.000000E+01   1.000000E+01   1.000000E+01   1.000000E+01   1.000000E+01   1.000000E+01   1.000000E+01   1.000000E+01   1.000000E+01   1.000000E+01   1.000000E+01   1.000000E+01   1.000000E+01   1.000000E+01   1.000000E+01   1.000000E+01   1.000000E+01   1.000000E+01   1.000000E+01   1.000000E+01   1.000000E+01   1.000000E+01   1.000000E+01   1.000000E+01   1.000000E+01   1.000000E+01   1.000000E+01   1.000000E+01   1.000000E+01   1.000000E+01   1.000000E+01   1.000000E+01   1.000000E+01   1.000000E+01   1.000000E+01   1.000000E+01   1.000000E+01   1.000000E+01   1.000000E+01   1.000000E+01   1.000000E+01   1.000000E+01   1.000000E+01   1.000000E+01   1.000000E+01   1.000000E+01   1.000000E+01   1.000000E+01   1.000000E+01   1.000000E+01   1.000000E+01   1.000000E+01   1.000000E+01   1.000000E+01   1.000000E+01   1.000000E+01   1.000000E+01   1.000000E+01   1.000000E+01   1.000000E+01   1.000000E+01   1.000000E+01   1.000000E+01   1.000000E+01   1.000000E+01   1.000000E+01   1.000000E+01   1.000000E+01   1.000000E+01   1.000000E+01   1.000000E+01   1.000000E+01   1.000000E+01   1.000000E+01   1.000000E+01   1.000000E+01   1.000000E+01   1.000000E+01   1.000000E+01   1.000000E+01   1.000000E+01   1.000000E+01   1.000000E+01   1.000000E+01   1.000000E+01   1.000000E+01   1.000000E+01   1.000000E+01   1.000000E+01
INTERNAL               1 (250E15.6) -1 #vka2                          
   5.000000E+00   5.000000E+00   5.000000E+00   5.000000E+00   5.000000E+00   5.000000E+00   5.000000E+00   5.000000E+00   5.000000E+00   5.000000E+00   5.000000E+00   5.000000E+00   5.000000E+00   5.000000E+00   5.000000E+00   5.000000E+00   5.000000E+00   5.000000E+00   5.000000E+00   5.000000E+00   5.000000E+00   5.000000E+00   5.000000E+00   5.000000E+00   5.000000E+00   5.000000E+00   5.000000E+00   5.000000E+00   5.000000E+00   5.000000E+00   5.000000E+00   5.000000E+00   5.000000E+00   5.000000E+00   5.000000E+00   5.000000E+00   5.000000E+00   5.000000E+00   5.000000E+00   5.000000E+00   5.000000E+00   5.000000E+00   5.000000E+00   5.000000E+00   5.000000E+00   5.000000E+00   5.000000E+00   5.000000E+00   5.000000E+00   5.000000E+00   5.000000E+00   5.000000E+00   5.000000E+00   5.000000E+00   5.000000E+00   5.000000E+00   5.000000E+00   5.000000E+00   5.000000E+00   5.000000E+00   5.000000E+00   5.000000E+00   5.000000E+00   5.000000E+00   5.000000E+00   5.000000E+00   5.000000E+00   5.000000E+00   5.000000E+00   5.000000E+00   5.000000E+00   5.000000E+00   5.000000E+00   5.000000E+00   5.000000E+00   5.000000E+00   5.000000E+00   5.000000E+00   5.000000E+00   5.000000E+00   5.000000E+00   5.000000E+00   5.000000E+00   5.000000E+00   5.000000E+00   5.000000E+00   5.000000E+00   5.000000E+00   5.000000E+00   5.000000E+00   5.000000E+00   5.000000E+00   5.000000E+00   5.000000E+00   5.000000E+00   5.000000E+00   5.000000E+00   5.000000E+00   5.000000E+00   5.000000E+00   5.000000E+00   5.000000E+00   5.000000E+00   5.000000E+00   5.000000E+00   5.000000E+00   5.000000E+00   5.000000E+00   5.000000E+00   5.000000E+00   5.000000E+00   5.000000E+00   5.000000E+00   5.000000E+00   5.000000E+00   5.000000E+00   5.000000E+00   5.000000E+00   5.000000E+00   5.000000E+00   5.000000E+00   5.000000E+00   5.000000E+00   5.000000E+00   5.000000E+00   5.000000E+00   5.000000E+00   5.000000E+00   5.000000E+00   5.000000E+00   5.000000E+00   5.000000E+00   5.000000E+00   5.000000E+00   5.000000E+00   5.000000E+00   5.000000E+00   5.000000E+00   5.000000E+00   5.000000E+00   5.000000E+00   5.000000E+00   5.000000E+00   5.000000E+00   5.000000E+00   5.000000E+00   5.000000E+00   5.000000E+00   5.000000E+00   5.000000E+00   5.000000E+00   5.000000E+00   5.000000E+00   5.000000E+00   5.000000E+00   5.000000E+00   5.000000E+00   5.000000E+00   5.000000E+00   5.000000E+00   5.000000E+00   5.000000E+00   5.000000E+00   5.000000E+00   5.000000E+00   5.000000E+00   5.000000E+00   5.000000E+00   5.000000E+00   5.000000E+00   5.000000E+00   5.000000E+00   5.000000E+00   5.000000E+00   5.000000E+00   5.000000E+00   5.000000E+00   5.000000E+00   5.000000E+00   5.000000E+00   5.000000E+00   5.000000E+00   5.000000E+00   5.000000E+00   5.000000E+00   5.000000E+00   5.000000E+00   5.000000E+00   5.000000E+00   5.000000E+00   5.000000E+00   5.000000E+00   5.000000E+00   5.000000E+00   5.000000E+00   5.000000E+00   5.000000E+00   5.000000E+00   5.000000E+00   5.000000E+00   5.000000E+00   5.000000E+00   5.000000E+00   5.000000E+00   5.000000E+00   5.000000E+00   5.000000E+00   5.000000E+00   5.000000E+00   5.000000E+00   5.000000E+00   5.000000E+00   5.000000E+00   5.000000E+00   5.000000E+00   5.000000E+00   5.000000E+00   5.000000E+00   5.000000E+00   5.000000E+00   5.000000E+00   5.000000E+00   5.000000E+00   5.000000E+00   5.000000E+00   5.000000E+00   5.000000E+00   5.000000E+00   5.000000E+00   5.000000E+00   5.000000E+00   5.000000E+00   5.000000E+00   5.000000E+00   5.000000E+00   5.000000E+00   5.000000E+00   5.000000E+00   5.000000E+00   5.000000E+00   5.000000E+00   5.000000E+00   5.000000E+00   5.000000E+00   5.000000E+00   5.000000E+00   5.000000E+00   5.000000E+00   5.000000E+00   5.000000E+00
INTERNAL               1 (250E15.6) -1 #ss layer 2                    
   1.000000E-03   1.000000E-03   1.000000E-03   1.000000E-03   1.000000E-03   1.000000E-03   1.000000E-03   1.000000E-03   1.000000E-03   1.000000E-03   1.000000E-03   1.000000E-03   1.000000E-03   1.000000E-03   1.000000E-03   1.000000E-03   1.000000E-03   1.000000E-03   1.000000E-03   1.000000E-03   1.000000E-03   1.000000E-03   1.000000E-03   1.000000E-03   1.000000E-03   1.000000E-03   1.000000E-03   1.000000E-03   1.000000E-03   1.000000E-03   1.000000E-03   1.000000E-03   1.000000E-03   1.000000E-03   1.000000E-03   1.000000E-03   1.000000E-03   1.000000E-03   1.000000E-03   1.000000E-03   1.000000E-03   1.000000E-03   1.000000E-03   1.000000E-03   1.000000E-03   1.000000E-03   1.000000E-03   1.000000E-03   1.000000E-03   1.000000E-03   1.000000E-03   1.000000E-03   1.000000E-03   1.000000E-03   1.000000E-03   1.000000E-03   1.000000E-03   1.000000E-03   1.000000E-03   1.000000E-03   1.000000E-03   1.000000E-03   1.000000E-03   1.000000E-03   1.000000E-03   1.000000E-03   1.000000E-03   1.000000E-03   1.000000E-03   1.000000E-03   1.000000E-03   1.000000E-03   1.000000E-03   1.000000E-03   1.000000E-03   1.000000E-03   1.000000E-03   1.000000E-03   1.000000E-03   1.000000E-03   1.000000E-03   1.000000E-03   1.000000E-03   1.000000E-03   1.000000E-03   1.000000E-03   1.000000E-03   1.000000E-03   1.000000E-03   1.000000E-03   1.000000E-03   1.000000E-03   1.000000E-03   1.000000E-03   1.000000E-03   1.000000E-03   1.000000E-03   1.000000E-03   1.000000E-03   1.000000E-03   1.000000E-03   1.000000E-03   1.000000E-03   1.000000E-03   1.000000E-03   1.000000E-03   1.000000E-03   1.000000E-03   1.000000E-03   1.000000E-03   1.000000E-03   1.000000E-03   1.000000E-03   1.000000E-03   1.000000E-03   1.000000E-03   1.000000E-03   1.000000E-03   1.000000E-03   1.000000E-03   1.000000E-03   1.000000E-03   1.000000E-03   1.000000E-03   1.000000E-03   1.000000E-03   1.000000E-03   1.000000E-03   1.000000E-03   1.000000E-03   1.000000E-03   1.000000E-03   1.000000E-03   1.000000E-03   1.000000E-03   1.000000E-03   1.000000E-03   1.000000E-03   1.000000E-03   1.000000E-03   1.000000E-03   1.000000E-03   1.000000E-03   1.000000E-03   1.000000E-03   1.000000E-03   1.000000E-03   1.000000E-03   1.000000E-03   1.000000E-03   1.000000E-03   1.000000E-03   1.000000E-03   1.000000E-03   1.000000E-03   1.000000E-03   1.000000E-03   1.000000E-03   1.000000E-03   1.000000E-03   1.000000E-03   1.000000E-03   1.000000E-03   1.000000E-03   1.000000E-03   1.000000E-03   1.000000E-03   1.000000E-03   1.000000E-03   1.000000E-03   1.000000E-03   1.000000E-03   1.000000E-03   1.000000E-03   1.000000E-03   1.000000E-03   1.000000E-03   1.000000E-03   1.000000E-03   1.000000E-03   1.000000E-03   1.000000E-03   1.000000E-03   1.000000E-03   1.000000E-03   1.000000E-03   1.000000E-03   1.000000E-03   1.000000E-03   1.000000E-03   1.000000E-03   1.000000E-03   1.000000E-03   1.000000E-03   1.000000E-03   1.000000E-03   1.000000E-03   1.000000E-03   1.000000E-03   1.000000E-03   1.000000E-03   1.000000E-03   1.000000E-03   1.000000E-03   1.000000E-03   1.000000E-03   1.000000E-03   1.000000E-03   1.000000E-03   1.000000E-03   1.000000E-03   1.000000E-03   1.000000E-03   1.000000E-03   1.000000E-03   1.000000E-03   1.000000E-03   1.000000E-03   1.000000E-03   1.000000E-03   1.000000E-03   1.000000E-03   1.000000E-03   1.000000E-03   1.000000E-03   1.000000E-03   1.000000E-03   1.000000E-03   1.000000E-03   1.000000E-03   1.000000E-03   1.000000E-03   1.000000E-03   1.000000E-03   1.000000E-03   1.000000E-03   1.000000E-03   1.000000E-03   1.000000E-03   1.000000E-03   1.000000E-03   1.000000E-03   1.000000E-03   1.000000E-03   1.000000E-03   1.000000E-03   1.000000E-03   1.000000E-03   1.000000E-03   1.000000E-03
INTERNAL               1 (250E15.6) -1 #vkcb layer 2                  