# GHB package for  MODFLOW-2005, generated by Flopy.
         2        53
         2         0 # stress period 1
         1         1         1             0.2             8.0
         2         1         1             0.2       0.6666667
         2         0 # stress period 2
         1         1         1             0.2             8.0
         2         1         1             0.2       0.6666667
         2         0 # stress period 3
         1         1         1             0.2             8.0
         2         1         1             0.2       0.6666667
         2         0 # stress period 4
         1         1         1             0.2             8.0
         2         1         1             0.2       0.6666667
         2         0 # stress period 5
         1         1         1             0.2             8.0
         2         1         1             0.2       0.6666667
         2         0 # stress period 6
         1         1         1             0.2             8.0
         2         1         1             0.2       0.6666667
         2         0 # stress period 7
         1         1         1             0.2             8.0
         2         1         1             0.2       0.6666667
         2         0 # stress period 8
         1         1         1             0.2             8.0
         2         1         1             0.2       0.6666667
         2         0 # stress period 9
         1         1         1             0.2             8.0
         2         1         1             0.2       0.6666667
         2         0 # stress period 10
         1         1         1             0.2             8.0
         2         1         1             0.2       0.6666667
         2         0 # stress period 11
         1         1         1             0.2             8.0
         2         1         1             0.2       0.6666667
         2         0 # stress period 12
         1         1         1             0.2             8.0
         2         1         1             0.2       0.6666667
         2         0 # stress period 13
         1         1         1             0.2             8.0
         2         1         1             0.2       0.6666667
         2         0 # stress period 14
         1         1         1             0.2             8.0
         2         1         1             0.2       0.6666667
         2         0 # stress period 15
         1         1         1             0.2             8.0
         2         1         1             0.2       0.6666667
         2         0 # stress period 16
         1         1         1             0.2             8.0
         2         1         1             0.2       0.6666667
         2         0 # stress period 17
         1         1         1             0.2             8.0
         2         1         1             0.2       0.6666667
         2         0 # stress period 18
         1         1         1             0.2             8.0
         2         1         1             0.2       0.6666667
         2         0 # stress period 19
         1         1         1             0.2             8.0
         2         1         1             0.2       0.6666667
         2         0 # stress period 20
         1         1         1             0.2             8.0
         2         1         1             0.2       0.6666667
         2         0 # stress period 21
         1         1         1             0.2             8.0
         2         1         1             0.2       0.6666667
         2         0 # stress period 22
         1         1         1             0.2             8.0
         2         1         1             0.2       0.6666667
         2         0 # stress period 23
         1         1         1             0.2             8.0
         2         1         1             0.2       0.6666667
         2         0 # stress period 24
         1         1         1             0.2             8.0
         2         1         1             0.2       0.6666667
         2         0 # stress period 25
         1         1         1             0.2             8.0
         2         1         1             0.2       0.6666667
         2         0 # stress period 26
         1         1         1             0.2             8.0
         2         1         1             0.2       0.6666667
         2         0 # stress period 27
         1         1         1             0.2             8.0
         2         1         1             0.2       0.6666667
         2         0 # stress period 28
         1         1         1             0.2             8.0
         2         1         1             0.2       0.6666667
         2         0 # stress period 29
         1         1         1             0.2             8.0
         2         1         1             0.2       0.6666667
         2         0 # stress period 30
         1         1         1             0.2             8.0
         2         1         1             0.2       0.6666667
         2         0 # stress period 31
         1         1         1             0.2             8.0
         2         1         1             0.2       0.6666667
         2         0 # stress period 32
         1         1         1             0.2             8.0
         2         1         1             0.2       0.6666667
         2         0 # stress period 33
         1         1         1             0.2             8.0
         2         1         1             0.2       0.6666667
         2         0 # stress period 34
         1         1         1             0.2             8.0
         2         1         1             0.2       0.6666667
         2         0 # stress period 35
         1         1         1             0.2             8.0
         2         1         1             0.2       0.6666667
         2         0 # stress period 36
         1         1         1             0.2             8.0
         2         1         1             0.2       0.6666667
         2         0 # stress period 37
         1         1         1             0.2             8.0
         2         1         1             0.2       0.6666667
         2         0 # stress period 38
         1         1         1             0.2             8.0
         2         1         1             0.2       0.6666667
         2         0 # stress period 39
         1         1         1             0.2             8.0
         2         1         1             0.2       0.6666667
         2         0 # stress period 40
         1         1         1             0.2             8.0
         2         1         1             0.2       0.6666667
         2         0 # stress period 41
         1         1         1             0.2             8.0
         2         1         1             0.2       0.6666667
         2         0 # stress period 42
         1         1         1             0.2             8.0
         2         1         1             0.2       0.6666667
         2         0 # stress period 43
         1         1         1             0.2             8.0
         2         1         1             0.2       0.6666667
         2         0 # stress period 44
         1         1         1             0.2             8.0
         2         1         1             0.2       0.6666667
         2         0 # stress period 45
         1         1         1             0.2             8.0
         2         1         1             0.2       0.6666667
         2         0 # stress period 46
         1         1         1             0.2             8.0
         2         1         1             0.2       0.6666667
         2         0 # stress period 47
         1         1         1             0.2             8.0
         2         1         1             0.2       0.6666667
         2         0 # stress period 48
         1         1         1             0.2             8.0
         2         1         1             0.2       0.6666667
         2         0 # stress period 49
         1         1         1             0.2             8.0
         2         1         1             0.2       0.6666667
         2         0 # stress period 50
         1         1         1             0.2             8.0
         2         1         1             0.2       0.6666667
         2         0 # stress period 51
         1         1         1             0.2             8.0
         2         1         1             0.2       0.6666667
         2         0 # stress period 52
         1         1         1             0.2             8.0
         2         1         1             0.2       0.6666667
         2         0 # stress period 53
         1         1         1             0.2             8.0
         2         1         1             0.2       0.6666667
         2         0 # stress period 54
         1         1         1             0.2             8.0
         2         1         1             0.2       0.6666667
         2         0 # stress period 55
         1         1         1             0.2             8.0
         2         1         1             0.2       0.6666667
         2         0 # stress period 56
         1         1         1             0.2             8.0
         2         1         1             0.2       0.6666667
         2         0 # stress period 57
         1         1         1             0.2             8.0
         2         1         1             0.2       0.6666667
         2         0 # stress period 58
         1         1         1             0.2             8.0
         2         1         1             0.2       0.6666667
         2         0 # stress period 59
         1         1         1             0.2             8.0
         2         1         1             0.2       0.6666667
         2         0 # stress period 60
         1         1         1             0.2             8.0
         2         1         1             0.2       0.6666667
         2         0 # stress period 61
         1         1         1             0.2             8.0
         2         1         1             0.2       0.6666667
         2         0 # stress period 62
         1         1         1             0.2             8.0
         2         1         1             0.2       0.6666667
         2         0 # stress period 63
         1         1         1             0.2             8.0
         2         1         1             0.2       0.6666667
         2         0 # stress period 64
         1         1         1             0.2             8.0
         2         1         1             0.2       0.6666667
         2         0 # stress period 65
         1         1         1             0.2             8.0
         2         1         1             0.2       0.6666667
         2         0 # stress period 66
         1         1         1             0.2             8.0
         2         1         1             0.2       0.6666667
         2         0 # stress period 67
         1         1         1             0.2             8.0
         2         1         1             0.2       0.6666667
         2         0 # stress period 68
         1         1         1             0.2             8.0
         2         1         1             0.2       0.6666667
         2         0 # stress period 69
         1         1         1             0.2             8.0
         2         1         1             0.2       0.6666667
         2         0 # stress period 70
         1         1         1             0.2             8.0
         2         1         1             0.2       0.6666667
         2         0 # stress period 71
         1         1         1             0.2             8.0
         2         1         1             0.2       0.6666667
         2         0 # stress period 72
         1         1         1             0.2             8.0
         2         1         1             0.2       0.6666667
         2         0 # stress period 73
         1         1         1             0.2             8.0
         2         1         1             0.2       0.6666667
         2         0 # stress period 74
         1         1         1             0.2             8.0
         2         1         1             0.2       0.6666667
         2         0 # stress period 75
         1         1         1             0.2             8.0
         2         1         1             0.2       0.6666667
         2         0 # stress period 76
         1         1         1             0.2             8.0
         2         1         1             0.2       0.6666667
         2         0 # stress period 77
         1         1         1             0.2             8.0
         2         1         1             0.2       0.6666667
         2         0 # stress period 78
         1         1         1             0.2             8.0
         2         1         1             0.2       0.6666667
         2         0 # stress period 79
         1         1         1             0.2             8.0
         2         1         1             0.2       0.6666667
         2         0 # stress period 80
         1         1         1             0.2             8.0
         2         1         1             0.2       0.6666667
         2         0 # stress period 81
         1         1         1             0.2             8.0
         2         1         1             0.2       0.6666667
         2         0 # stress period 82
         1         1         1             0.2             8.0
         2         1         1             0.2       0.6666667
         2         0 # stress period 83
         1         1         1             0.2             8.0
         2         1         1             0.2       0.6666667
         2         0 # stress period 84
         1         1         1             0.2             8.0
         2         1         1             0.2       0.6666667
         2         0 # stress period 85
         1         1         1             0.2             8.0
         2         1         1             0.2       0.6666667
         2         0 # stress period 86
         1         1         1             0.2             8.0
         2         1         1             0.2       0.6666667
         2         0 # stress period 87
         1         1         1             0.2             8.0
         2         1         1             0.2       0.6666667
         2         0 # stress period 88
         1         1         1             0.2             8.0
         2         1         1             0.2       0.6666667
         2         0 # stress period 89
         1         1         1             0.2             8.0
         2         1         1             0.2       0.6666667
         2         0 # stress period 90
         1         1         1             0.2             8.0
         2         1         1             0.2       0.6666667
         2         0 # stress period 91
         1         1         1             0.2             8.0
         2         1         1             0.2       0.6666667
         2         0 # stress period 92
         1         1         1             0.2             8.0
         2         1         1             0.2       0.6666667
         2         0 # stress period 93
         1         1         1             0.2             8.0
         2         1         1             0.2       0.6666667
         2         0 # stress period 94
         1         1         1             0.2             8.0
         2         1         1             0.2       0.6666667
         2         0 # stress period 95
         1         1         1             0.2             8.0
         2         1         1             0.2       0.6666667
         2         0 # stress period 96
         1         1         1             0.2             8.0
         2         1         1             0.2       0.6666667
         2         0 # stress period 97
         1         1         1             0.2             8.0
         2         1         1             0.2       0.6666667
         2         0 # stress period 98
         1         1         1             0.2             8.0
         2         1         1             0.2       0.6666667
         2         0 # stress period 99
         1         1         1             0.2             8.0
         2         1         1             0.2       0.6666667
         2         0 # stress period 100
         1         1         1             0.2             8.0
         2         1         1             0.2       0.6666667
         2         0 # stress period 101
         1         1         1             0.2             8.0
         2         1         1             0.2       0.6666667
         2         0 # stress period 102
         1         1         1             0.2             8.0
         2         1         1             0.2       0.6666667
         2         0 # stress period 103
         1         1         1             0.2             8.0
         2         1         1             0.2       0.6666667
         2         0 # stress period 104
         1         1         1             0.2             8.0
         2         1         1             0.2       0.6666667
         2         0 # stress period 105
         1         1         1             0.2             8.0
         2         1         1             0.2       0.6666667
         2         0 # stress period 106
         1         1         1             0.2             8.0
         2         1         1             0.2       0.6666667
         2         0 # stress period 107
         1         1         1             0.2             8.0
         2         1         1             0.2       0.6666667
         2         0 # stress period 108
         1         1         1             0.2             8.0
         2         1         1             0.2       0.6666667
         2         0 # stress period 109
         1         1         1             0.2             8.0
         2         1         1             0.2       0.6666667
         2         0 # stress period 110
         1         1         1             0.2             8.0
         2         1         1             0.2       0.6666667
         2         0 # stress period 111
         1         1         1             0.2             8.0
         2         1         1             0.2       0.6666667
         2         0 # stress period 112
         1         1         1             0.2             8.0
         2         1         1             0.2       0.6666667
         2         0 # stress period 113
         1         1         1             0.2             8.0
         2         1         1             0.2       0.6666667
         2         0 # stress period 114
         1         1         1             0.2             8.0
         2         1         1             0.2       0.6666667
         2         0 # stress period 115
         1         1         1             0.2             8.0
         2         1         1             0.2       0.6666667
         2         0 # stress period 116
         1         1         1             0.2             8.0
         2         1         1             0.2       0.6666667
         2         0 # stress period 117
         1         1         1             0.2             8.0
         2         1         1             0.2       0.6666667
         2         0 # stress period 118
         1         1         1             0.2             8.0
         2         1         1             0.2       0.6666667
         2         0 # stress period 119
         1         1         1             0.2             8.0
         2         1         1             0.2       0.6666667
         2         0 # stress period 120
         1         1         1             0.2             8.0
         2         1         1             0.2       0.6666667
         2         0 # stress period 121
         1         1         1             0.2             8.0
         2         1         1             0.2       0.6666667
         2         0 # stress period 122
         1         1         1             0.2             8.0
         2         1         1             0.2       0.6666667
         2         0 # stress period 123
         1         1         1             0.2             8.0
         2         1         1             0.2       0.6666667
         2         0 # stress period 124
         1         1         1             0.2             8.0
         2         1         1             0.2       0.6666667
         2         0 # stress period 125
         1         1         1             0.2             8.0
         2         1         1             0.2       0.6666667
         2         0 # stress period 126
         1         1         1             0.2             8.0
         2         1         1             0.2       0.6666667
         2         0 # stress period 127
         1         1         1             0.2             8.0
         2         1         1             0.2       0.6666667
         2         0 # stress period 128
         1         1         1             0.2             8.0
         2         1         1             0.2       0.6666667
         2         0 # stress period 129
         1         1         1             0.2             8.0
         2         1         1             0.2       0.6666667
         2         0 # stress period 130
         1         1         1             0.2             8.0
         2         1         1             0.2       0.6666667
         2         0 # stress period 131
         1         1         1             0.2             8.0
         2         1         1             0.2       0.6666667
         2         0 # stress period 132
         1         1         1             0.2             8.0
         2         1         1             0.2       0.6666667
         2         0 # stress period 133
         1         1         1             0.2             8.0
         2         1         1             0.2       0.6666667
         2         0 # stress period 134
         1         1         1             0.2             8.0
         2         1         1             0.2       0.6666667
         2         0 # stress period 135
         1         1         1             0.2             8.0
         2         1         1             0.2       0.6666667
         2         0 # stress period 136
         1         1         1             0.2             8.0
         2         1         1             0.2       0.6666667
         2         0 # stress period 137
         1         1         1             0.2             8.0
         2         1         1             0.2       0.6666667
         2         0 # stress period 138
         1         1         1             0.2             8.0
         2         1         1             0.2       0.6666667
         2         0 # stress period 139
         1         1         1             0.2             8.0
         2         1         1             0.2       0.6666667
         2         0 # stress period 140
         1         1         1             0.2             8.0
         2         1         1             0.2       0.6666667
         2         0 # stress period 141
         1         1         1             0.2             8.0
         2         1         1             0.2       0.6666667
         2         0 # stress period 142
         1         1         1             0.2             8.0
         2         1         1             0.2       0.6666667
         2         0 # stress period 143
         1         1         1             0.2             8.0
         2         1         1             0.2       0.6666667
         2         0 # stress period 144
         1         1         1             0.2             8.0
         2         1         1             0.2       0.6666667
         2         0 # stress period 145
         1         1         1             0.2             8.0
         2         1         1             0.2       0.6666667
         2         0 # stress period 146
         1         1         1             0.2             8.0
         2         1         1             0.2       0.6666667
         2         0 # stress period 147
         1         1         1             0.2             8.0
         2         1         1             0.2       0.6666667
         2         0 # stress period 148
         1         1         1             0.2             8.0
         2         1         1             0.2       0.6666667
         2         0 # stress period 149
         1         1         1             0.2             8.0
         2         1         1             0.2       0.6666667
         2         0 # stress period 150
         1         1         1             0.2             8.0
         2         1         1             0.2       0.6666667
         2         0 # stress period 151
         1         1         1             0.2             8.0
         2         1         1             0.2       0.6666667
         2         0 # stress period 152
         1         1         1             0.2             8.0
         2         1         1             0.2       0.6666667
         2         0 # stress period 153
         1         1         1             0.2             8.0
         2         1         1             0.2       0.6666667
         2         0 # stress period 154
         1         1         1             0.2             8.0
         2         1         1             0.2       0.6666667
         2         0 # stress period 155
         1         1         1             0.2             8.0
         2         1         1             0.2       0.6666667
         2         0 # stress period 156
         1         1         1             0.2             8.0
         2         1         1             0.2       0.6666667
         2         0 # stress period 157
         1         1         1             0.2             8.0
         2         1         1             0.2       0.6666667
         2         0 # stress period 158
         1         1         1             0.2             8.0
         2         1         1             0.2       0.6666667
         2         0 # stress period 159
         1         1         1             0.2             8.0
         2         1         1             0.2       0.6666667
         2         0 # stress period 160
         1         1         1             0.2             8.0
         2         1         1             0.2       0.6666667
         2         0 # stress period 161
         1         1         1             0.2             8.0
         2         1         1             0.2       0.6666667
         2         0 # stress period 162
         1         1         1             0.2             8.0
         2         1         1             0.2       0.6666667
         2         0 # stress period 163
         1         1         1             0.2             8.0
         2         1         1             0.2       0.6666667
         2         0 # stress period 164
         1         1         1             0.2             8.0
         2         1         1             0.2       0.6666667
         2         0 # stress period 165
         1         1         1             0.2             8.0
         2         1         1             0.2       0.6666667
         2         0 # stress period 166
         1         1         1             0.2             8.0
         2         1         1             0.2       0.6666667
         2         0 # stress period 167
         1         1         1             0.2             8.0
         2         1         1             0.2       0.6666667
         2         0 # stress period 168
         1         1         1             0.2             8.0
         2         1         1             0.2       0.6666667
         2         0 # stress period 169
         1         1         1             0.2             8.0
         2         1         1             0.2       0.6666667
         2         0 # stress period 170
         1         1         1             0.2             8.0
         2         1         1             0.2       0.6666667
         2         0 # stress period 171
         1         1         1             0.2             8.0
         2         1         1             0.2       0.6666667
         2         0 # stress period 172
         1         1         1             0.2             8.0
         2         1         1             0.2       0.6666667
         2         0 # stress period 173
         1         1         1             0.2             8.0
         2         1         1             0.2       0.6666667
         2         0 # stress period 174
         1         1         1             0.2             8.0
         2         1         1             0.2       0.6666667
         2         0 # stress period 175
         1         1         1             0.2             8.0
         2         1         1             0.2       0.6666667
         2         0 # stress period 176
         1         1         1             0.2             8.0
         2         1         1             0.2       0.6666667
         2         0 # stress period 177
         1         1         1             0.2             8.0
         2         1         1             0.2       0.6666667
         2         0 # stress period 178
         1         1         1             0.2             8.0
         2         1         1             0.2       0.6666667
         2         0 # stress period 179
         1         1         1             0.2             8.0
         2         1         1             0.2       0.6666667
         2         0 # stress period 180
         1         1         1             0.2             8.0