# DIS package for  MODFLOW-2005, generated by Flopy.
         4         1       250      3652         4         2
  1  1  1  0
INTERNAL               1 (250E15.6) -1 #delr                          
   1.000000E+00   1.000000E+00   1.000000E+00   1.000000E+00   1.000000E+00   1.000000E+00   1.000000E+00   1.000000E+00   1.000000E+00   1.000000E+00   1.000000E+00   1.000000E+00   1.000000E+00   1.000000E+00   1.000000E+00   1.000000E+00   1.000000E+00   1.000000E+00   1.000000E+00   1.000000E+00   1.000000E+00   1.000000E+00   1.000000E+00   1.000000E+00   1.000000E+00   1.000000E+00   1.000000E+00   1.000000E+00   1.000000E+00   1.000000E+00   1.000000E+00   1.000000E+00   1.000000E+00   1.000000E+00   1.000000E+00   1.000000E+00   1.000000E+00   1.000000E+00   1.000000E+00   1.000000E+00   1.000000E+00   1.000000E+00   1.000000E+00   1.000000E+00   1.000000E+00   1.000000E+00   1.000000E+00   1.000000E+00   1.000000E+00   1.000000E+00   1.000000E+00   1.000000E+00   1.000000E+00   1.000000E+00   1.000000E+00   1.000000E+00   1.000000E+00   1.000000E+00   1.000000E+00   1.000000E+00   1.000000E+00   1.000000E+00   1.000000E+00   1.000000E+00   1.000000E+00   1.000000E+00   1.000000E+00   1.000000E+00   1.000000E+00   1.000000E+00   1.000000E+00   1.000000E+00   1.000000E+00   1.000000E+00   1.000000E+00   1.000000E+00   1.000000E+00   1.000000E+00   1.000000E+00   1.000000E+00   1.000000E+00   1.000000E+00   1.000000E+00   1.000000E+00   1.000000E+00   1.000000E+00   1.000000E+00   1.000000E+00   1.000000E+00   1.000000E+00   1.000000E+00   1.000000E+00   1.000000E+00   1.000000E+00   1.000000E+00   1.000000E+00   1.000000E+00   1.000000E+00   1.000000E+00   1.000000E+00   1.000000E+00   1.000000E+00   1.000000E+00   1.000000E+00   1.000000E+00   1.000000E+00   1.000000E+00   1.000000E+00   1.000000E+00   1.000000E+00   1.000000E+00   1.000000E+00   1.000000E+00   1.000000E+00   1.000000E+00   1.000000E+00   1.000000E+00   1.000000E+00   1.000000E+00   1.000000E+00   1.000000E+00   1.000000E+00   1.000000E+00   1.000000E+00   1.000000E+00   1.000000E+00   1.000000E+00   1.000000E+00   1.000000E+00   1.000000E+00   1.000000E+00   1.000000E+00   1.000000E+00   1.000000E+00   1.000000E+00   1.000000E+00   1.000000E+00   1.000000E+00   1.000000E+00   1.000000E+00   1.000000E+00   1.000000E+00   1.000000E+00   1.000000E+00   1.000000E+00   1.000000E+00   1.000000E+00   1.000000E+00   1.000000E+00   1.000000E+00   1.000000E+00   1.000000E+00   1.000000E+00   1.000000E+00   1.000000E+00   1.000000E+00   1.000000E+00   1.000000E+00   1.000000E+00   1.000000E+00   1.000000E+00   1.000000E+00   1.000000E+00   1.000000E+00   1.000000E+00   1.000000E+00   1.000000E+00   1.000000E+00   1.000000E+00   1.000000E+00   1.000000E+00   1.000000E+00   1.000000E+00   1.000000E+00   1.000000E+00   1.000000E+00   1.000000E+00   1.000000E+00   1.000000E+00   1.000000E+00   1.000000E+00   1.000000E+00   1.000000E+00   1.000000E+00   1.000000E+00   1.000000E+00   1.000000E+00   1.000000E+00   1.000000E+00   1.000000E+00   1.000000E+00   1.000000E+00   1.000000E+00   1.000000E+00   1.000000E+00   1.000000E+00   1.000000E+00   1.000000E+00   1.000000E+00   1.000000E+00   1.000000E+00   1.000000E+00   1.000000E+00   1.000000E+00   1.000000E+00   1.000000E+00   1.000000E+00   1.000000E+00   1.000000E+00   1.000000E+00   1.000000E+00   1.000000E+00   1.000000E+00   1.000000E+00   1.000000E+00   1.000000E+00   1.000000E+00   1.000000E+00   1.000000E+00   1.000000E+00   1.000000E+00   1.000000E+00   1.000000E+00   1.000000E+00   1.000000E+00   1.000000E+00   1.000000E+00   1.000000E+00   1.000000E+00   1.000000E+00   1.000000E+00   1.000000E+00   1.000000E+00   1.000000E+00   1.000000E+00   1.000000E+00   1.000000E+00   1.000000E+00   1.000000E+00   1.000000E+00   1.000000E+00   1.000000E+00   1.000000E+00   1.000000E+00   1.000000E+00   1.000000E+00   1.000000E+00   1.000000E+00   1.000000E+00   1.000000E+00
INTERNAL               1   (1E15.6) -1 #delc                          
   1.000000E+00
INTERNAL               1 (250E15.6) -1 #model_top                     
   0.000000E+00   0.000000E+00   0.000000E+00   0.000000E+00   0.000000E+00   0.000000E+00   0.000000E+00   0.000000E+00   0.000000E+00   0.000000E+00   0.000000E+00   0.000000E+00   0.000000E+00   0.000000E+00   0.000000E+00   0.000000E+00   0.000000E+00   0.000000E+00   0.000000E+00   0.000000E+00   0.000000E+00   0.000000E+00   0.000000E+00   0.000000E+00   0.000000E+00   0.000000E+00   0.000000E+00   0.000000E+00   0.000000E+00   0.000000E+00   0.000000E+00   0.000000E+00   0.000000E+00   0.000000E+00   0.000000E+00   0.000000E+00   0.000000E+00   0.000000E+00   0.000000E+00   0.000000E+00   0.000000E+00   0.000000E+00   0.000000E+00   0.000000E+00   0.000000E+00   0.000000E+00   0.000000E+00   0.000000E+00   0.000000E+00   0.000000E+00   0.000000E+00   0.000000E+00   0.000000E+00   0.000000E+00   0.000000E+00   0.000000E+00   0.000000E+00   0.000000E+00   0.000000E+00   0.000000E+00   0.000000E+00   0.000000E+00   0.000000E+00   0.000000E+00   0.000000E+00   0.000000E+00   0.000000E+00   0.000000E+00   0.000000E+00   0.000000E+00   0.000000E+00   0.000000E+00   0.000000E+00   0.000000E+00   0.000000E+00   0.000000E+00   0.000000E+00   0.000000E+00   0.000000E+00   0.000000E+00   0.000000E+00   0.000000E+00   0.000000E+00   0.000000E+00   0.000000E+00   0.000000E+00   0.000000E+00   0.000000E+00   0.000000E+00   0.000000E+00   0.000000E+00   0.000000E+00   0.000000E+00   0.000000E+00   0.000000E+00   0.000000E+00   0.000000E+00   0.000000E+00   0.000000E+00   0.000000E+00   0.000000E+00   0.000000E+00   0.000000E+00   0.000000E+00   0.000000E+00   0.000000E+00   0.000000E+00   0.000000E+00   0.000000E+00   0.000000E+00   0.000000E+00   0.000000E+00   0.000000E+00   0.000000E+00   0.000000E+00   0.000000E+00   0.000000E+00   0.000000E+00   0.000000E+00   0.000000E+00   0.000000E+00   0.000000E+00   0.000000E+00   0.000000E+00   0.000000E+00   0.000000E+00   0.000000E+00   0.000000E+00   0.000000E+00   0.000000E+00   0.000000E+00   0.000000E+00   0.000000E+00   0.000000E+00   0.000000E+00   0.000000E+00   0.000000E+00   0.000000E+00   0.000000E+00   0.000000E+00   0.000000E+00   0.000000E+00   0.000000E+00   0.000000E+00   0.000000E+00   0.000000E+00   0.000000E+00   0.000000E+00   0.000000E+00   0.000000E+00   0.000000E+00   0.000000E+00   0.000000E+00   0.000000E+00   0.000000E+00   0.000000E+00   0.000000E+00   0.000000E+00   0.000000E+00   0.000000E+00   0.000000E+00   0.000000E+00   0.000000E+00   0.000000E+00   0.000000E+00   0.000000E+00   0.000000E+00   0.000000E+00   0.000000E+00   0.000000E+00   0.000000E+00   0.000000E+00   0.000000E+00   0.000000E+00   0.000000E+00   0.000000E+00   0.000000E+00   0.000000E+00   0.000000E+00   0.000000E+00   0.000000E+00   0.000000E+00   0.000000E+00   0.000000E+00   0.000000E+00   0.000000E+00   0.000000E+00   0.000000E+00   0.000000E+00   0.000000E+00   0.000000E+00   0.000000E+00   0.000000E+00   0.000000E+00   0.000000E+00   0.000000E+00   0.000000E+00   0.000000E+00   0.000000E+00   0.000000E+00   0.000000E+00   0.000000E+00   0.000000E+00   0.000000E+00   0.000000E+00   0.000000E+00   0.000000E+00   0.000000E+00   0.000000E+00   0.000000E+00   0.000000E+00   0.000000E+00   0.000000E+00   0.000000E+00   0.000000E+00   0.000000E+00   0.000000E+00   0.000000E+00   0.000000E+00   0.000000E+00   0.000000E+00   0.000000E+00   0.000000E+00   0.000000E+00   0.000000E+00   0.000000E+00   0.000000E+00   0.000000E+00   0.000000E+00   0.000000E+00   0.000000E+00   0.000000E+00   0.000000E+00   0.000000E+00   0.000000E+00   0.000000E+00   0.000000E+00   0.000000E+00   0.000000E+00   0.000000E+00   0.000000E+00   0.000000E+00   0.000000E+00   0.000000E+00   0.000000E+00   0.000000E+00   0.000000E+00   0.000000E+00   0.000000E+00   0.000000E+00
INTERNAL               1 (250E15.6) -1 #botm layer 1                  
  -8.000000E+00  -8.000000E+00  -8.000000E+00  -8.000000E+00  -8.000000E+00  -8.000000E+00  -8.000000E+00  -8.000000E+00  -8.000000E+00  -8.000000E+00  -8.000000E+00  -8.000000E+00  -8.000000E+00  -8.000000E+00  -8.000000E+00  -8.000000E+00  -8.000000E+00  -8.000000E+00  -8.000000E+00  -8.000000E+00  -8.000000E+00  -8.000000E+00  -8.000000E+00  -8.000000E+00  -8.000000E+00  -8.000000E+00  -8.000000E+00  -8.000000E+00  -8.000000E+00  -8.000000E+00  -8.000000E+00  -8.000000E+00  -8.000000E+00  -8.000000E+00  -8.000000E+00  -8.000000E+00  -8.000000E+00  -8.000000E+00  -8.000000E+00  -8.000000E+00  -8.000000E+00  -8.000000E+00  -8.000000E+00  -8.000000E+00  -8.000000E+00  -8.000000E+00  -8.000000E+00  -8.000000E+00  -8.000000E+00  -8.000000E+00  -8.000000E+00  -8.000000E+00  -8.000000E+00  -8.000000E+00  -8.000000E+00  -8.000000E+00  -8.000000E+00  -8.000000E+00  -8.000000E+00  -8.000000E+00  -8.000000E+00  -8.000000E+00  -8.000000E+00  -8.000000E+00  -8.000000E+00  -8.000000E+00  -8.000000E+00  -8.000000E+00  -8.000000E+00  -8.000000E+00  -8.000000E+00  -8.000000E+00  -8.000000E+00  -8.000000E+00  -8.000000E+00  -8.000000E+00  -8.000000E+00  -8.000000E+00  -8.000000E+00  -8.000000E+00  -8.000000E+00  -8.000000E+00  -8.000000E+00  -8.000000E+00  -8.000000E+00  -8.000000E+00  -8.000000E+00  -8.000000E+00  -8.000000E+00  -8.000000E+00  -8.000000E+00  -8.000000E+00  -8.000000E+00  -8.000000E+00  -8.000000E+00  -8.000000E+00  -8.000000E+00  -8.000000E+00  -8.000000E+00  -8.000000E+00  -8.000000E+00  -8.000000E+00  -8.000000E+00  -8.000000E+00  -8.000000E+00  -8.000000E+00  -8.000000E+00  -8.000000E+00  -8.000000E+00  -8.000000E+00  -8.000000E+00  -8.000000E+00  -8.000000E+00  -8.000000E+00  -8.000000E+00  -8.000000E+00  -8.000000E+00  -8.000000E+00  -8.000000E+00  -8.000000E+00  -8.000000E+00  -8.000000E+00  -8.000000E+00  -8.000000E+00  -8.000000E+00  -8.000000E+00  -8.000000E+00  -8.000000E+00  -8.000000E+00  -8.000000E+00  -8.000000E+00  -8.000000E+00  -8.000000E+00  -8.000000E+00  -8.000000E+00  -8.000000E+00  -8.000000E+00  -8.000000E+00  -8.000000E+00  -8.000000E+00  -8.000000E+00  -8.000000E+00  -8.000000E+00  -8.000000E+00  -8.000000E+00  -8.000000E+00  -8.000000E+00  -8.000000E+00  -8.000000E+00  -8.000000E+00  -8.000000E+00  -8.000000E+00  -8.000000E+00  -8.000000E+00  -8.000000E+00  -8.000000E+00  -8.000000E+00  -8.000000E+00  -8.000000E+00  -8.000000E+00  -8.000000E+00  -8.000000E+00  -8.000000E+00  -8.000000E+00  -8.000000E+00  -8.000000E+00  -8.000000E+00  -8.000000E+00  -8.000000E+00  -8.000000E+00  -8.000000E+00  -8.000000E+00  -8.000000E+00  -8.000000E+00  -8.000000E+00  -8.000000E+00  -8.000000E+00  -8.000000E+00  -8.000000E+00  -8.000000E+00  -8.000000E+00  -8.000000E+00  -8.000000E+00  -8.000000E+00  -8.000000E+00  -8.000000E+00  -8.000000E+00  -8.000000E+00  -8.000000E+00  -8.000000E+00  -8.000000E+00  -8.000000E+00  -8.000000E+00  -8.000000E+00  -8.000000E+00  -8.000000E+00  -8.000000E+00  -8.000000E+00  -8.000000E+00  -8.000000E+00  -8.000000E+00  -8.000000E+00  -8.000000E+00  -8.000000E+00  -8.000000E+00  -8.000000E+00  -8.000000E+00  -8.000000E+00  -8.000000E+00  -8.000000E+00  -8.000000E+00  -8.000000E+00  -8.000000E+00  -8.000000E+00  -8.000000E+00  -8.000000E+00  -8.000000E+00  -8.000000E+00  -8.000000E+00  -8.000000E+00  -8.000000E+00  -8.000000E+00  -8.000000E+00  -8.000000E+00  -8.000000E+00  -8.000000E+00  -8.000000E+00  -8.000000E+00  -8.000000E+00  -8.000000E+00  -8.000000E+00  -8.000000E+00  -8.000000E+00  -8.000000E+00  -8.000000E+00  -8.000000E+00  -8.000000E+00  -8.000000E+00  -8.000000E+00  -8.000000E+00  -8.000000E+00  -8.000000E+00  -8.000000E+00  -8.000000E+00  -8.000000E+00  -8.000000E+00  -8.000000E+00  -8.000000E+00  -8.000000E+00  -8.000000E+00
INTERNAL               1 (250E15.6) -1 #botm layer 2                  
  -1.000000E+01  -1.000000E+01  -1.000000E+01  -1.000000E+01  -1.000000E+01  -1.000000E+01  -1.000000E+01  -1.000000E+01  -1.000000E+01  -1.000000E+01  -1.000000E+01  -1.000000E+01  -1.000000E+01  -1.000000E+01  -1.000000E+01  -1.000000E+01  -1.000000E+01  -1.000000E+01  -1.000000E+01  -1.000000E+01  -1.000000E+01  -1.000000E+01  -1.000000E+01  -1.000000E+01  -1.000000E+01  -1.000000E+01  -1.000000E+01  -1.000000E+01  -1.000000E+01  -1.000000E+01  -1.000000E+01  -1.000000E+01  -1.000000E+01  -1.000000E+01  -1.000000E+01  -1.000000E+01  -1.000000E+01  -1.000000E+01  -1.000000E+01  -1.000000E+01  -1.000000E+01  -1.000000E+01  -1.000000E+01  -1.000000E+01  -1.000000E+01  -1.000000E+01  -1.000000E+01  -1.000000E+01  -1.000000E+01  -1.000000E+01  -1.000000E+01  -1.000000E+01  -1.000000E+01  -1.000000E+01  -1.000000E+01  -1.000000E+01  -1.000000E+01  -1.000000E+01  -1.000000E+01  -1.000000E+01  -1.000000E+01  -1.000000E+01  -1.000000E+01  -1.000000E+01  -1.000000E+01  -1.000000E+01  -1.000000E+01  -1.000000E+01  -1.000000E+01  -1.000000E+01  -1.000000E+01  -1.000000E+01  -1.000000E+01  -1.000000E+01  -1.000000E+01  -1.000000E+01  -1.000000E+01  -1.000000E+01  -1.000000E+01  -1.000000E+01  -1.000000E+01  -1.000000E+01  -1.000000E+01  -1.000000E+01  -1.000000E+01  -1.000000E+01  -1.000000E+01  -1.000000E+01  -1.000000E+01  -1.000000E+01  -1.000000E+01  -1.000000E+01  -1.000000E+01  -1.000000E+01  -1.000000E+01  -1.000000E+01  -1.000000E+01  -1.000000E+01  -1.000000E+01  -1.000000E+01  -1.000000E+01  -1.000000E+01  -1.000000E+01  -1.000000E+01  -1.000000E+01  -1.000000E+01  -1.000000E+01  -1.000000E+01  -1.000000E+01  -1.000000E+01  -1.000000E+01  -1.000000E+01  -1.000000E+01  -1.000000E+01  -1.000000E+01  -1.000000E+01  -1.000000E+01  -1.000000E+01  -1.000000E+01  -1.000000E+01  -1.000000E+01  -1.000000E+01  -1.000000E+01  -1.000000E+01  -1.000000E+01  -1.000000E+01  -1.000000E+01  -1.000000E+01  -1.000000E+01  -1.000000E+01  -1.000000E+01  -1.000000E+01  -1.000000E+01  -1.000000E+01  -1.000000E+01  -1.000000E+01  -1.000000E+01  -1.000000E+01  -1.000000E+01  -1.000000E+01  -1.000000E+01  -1.000000E+01  -1.000000E+01  -1.000000E+01  -1.000000E+01  -1.000000E+01  -1.000000E+01  -1.000000E+01  -1.000000E+01  -1.000000E+01  -1.000000E+01  -1.000000E+01  -1.000000E+01  -1.000000E+01  -1.000000E+01  -1.000000E+01  -1.000000E+01  -1.000000E+01  -1.000000E+01  -1.000000E+01  -1.000000E+01  -1.000000E+01  -1.000000E+01  -1.000000E+01  -1.000000E+01  -1.000000E+01  -1.000000E+01  -1.000000E+01  -1.000000E+01  -1.000000E+01  -1.000000E+01  -1.000000E+01  -1.000000E+01  -1.000000E+01  -1.000000E+01  -1.000000E+01  -1.000000E+01  -1.000000E+01  -1.000000E+01  -1.000000E+01  -1.000000E+01  -1.000000E+01  -1.000000E+01  -1.000000E+01  -1.000000E+01  -1.000000E+01  -1.000000E+01  -1.000000E+01  -1.000000E+01  -1.000000E+01  -1.000000E+01  -1.000000E+01  -1.000000E+01  -1.000000E+01  -1.000000E+01  -1.000000E+01  -1.000000E+01  -1.000000E+01  -1.000000E+01  -1.000000E+01  -1.000000E+01  -1.000000E+01  -1.000000E+01  -1.000000E+01  -1.000000E+01  -1.000000E+01  -1.000000E+01  -1.000000E+01  -1.000000E+01  -1.000000E+01  -1.000000E+01  -1.000000E+01  -1.000000E+01  -1.000000E+01  -1.000000E+01  -1.000000E+01  -1.000000E+01  -1.000000E+01  -1.000000E+01  -1.000000E+01  -1.000000E+01  -1.000000E+01  -1.000000E+01  -1.000000E+01  -1.000000E+01  -1.000000E+01  -1.000000E+01  -1.000000E+01  -1.000000E+01  -1.000000E+01  -1.000000E+01  -1.000000E+01  -1.000000E+01  -1.000000E+01  -1.000000E+01  -1.000000E+01  -1.000000E+01  -1.000000E+01  -1.000000E+01  -1.000000E+01  -1.000000E+01  -1.000000E+01  -1.000000E+01  -1.000000E+01  -1.000000E+01  -1.000000E+01  -1.000000E+01  -1.000000E+01  -1.000000E+01  -1.000000E+01
INTERNAL               1 (250E15.6) -1 #botm layer 3                  
  -3.000000E+01  -3.000000E+01  -3.000000E+01  -3.000000E+01  -3.000000E+01  -3.000000E+01  -3.000000E+01  -3.000000E+01  -3.000000E+01  -3.000000E+01  -3.000000E+01  -3.000000E+01  -3.000000E+01  -3.000000E+01  -3.000000E+01  -3.000000E+01  -3.000000E+01  -3.000000E+01  -3.000000E+01  -3.000000E+01  -3.000000E+01  -3.000000E+01  -3.000000E+01  -3.000000E+01  -3.000000E+01  -3.000000E+01  -3.000000E+01  -3.000000E+01  -3.000000E+01  -3.000000E+01  -3.000000E+01  -3.000000E+01  -3.000000E+01  -3.000000E+01  -3.000000E+01  -3.000000E+01  -3.000000E+01  -3.000000E+01  -3.000000E+01  -3.000000E+01  -3.000000E+01  -3.000000E+01  -3.000000E+01  -3.000000E+01  -3.000000E+01  -3.000000E+01  -3.000000E+01  -3.000000E+01  -3.000000E+01  -3.000000E+01  -3.000000E+01  -3.000000E+01  -3.000000E+01  -3.000000E+01  -3.000000E+01  -3.000000E+01  -3.000000E+01  -3.000000E+01  -3.000000E+01  -3.000000E+01  -3.000000E+01  -3.000000E+01  -3.000000E+01  -3.000000E+01  -3.000000E+01  -3.000000E+01  -3.000000E+01  -3.000000E+01  -3.000000E+01  -3.000000E+01  -3.000000E+01  -3.000000E+01  -3.000000E+01  -3.000000E+01  -3.000000E+01  -3.000000E+01  -3.000000E+01  -3.000000E+01  -3.000000E+01  -3.000000E+01  -3.000000E+01  -3.000000E+01  -3.000000E+01  -3.000000E+01  -3.000000E+01  -3.000000E+01  -3.000000E+01  -3.000000E+01  -3.000000E+01  -3.000000E+01  -3.000000E+01  -3.000000E+01  -3.000000E+01  -3.000000E+01  -3.000000E+01  -3.000000E+01  -3.000000E+01  -3.000000E+01  -3.000000E+01  -3.000000E+01  -3.000000E+01  -3.000000E+01  -3.000000E+01  -3.000000E+01  -3.000000E+01  -3.000000E+01  -3.000000E+01  -3.000000E+01  -3.000000E+01  -3.000000E+01  -3.000000E+01  -3.000000E+01  -3.000000E+01  -3.000000E+01  -3.000000E+01  -3.000000E+01  -3.000000E+01  -3.000000E+01  -3.000000E+01  -3.000000E+01  -3.000000E+01  -3.000000E+01  -3.000000E+01  -3.000000E+01  -3.000000E+01  -3.000000E+01  -3.000000E+01  -3.000000E+01  -3.000000E+01  -3.000000E+01  -3.000000E+01  -3.000000E+01  -3.000000E+01  -3.000000E+01  -3.000000E+01  -3.000000E+01  -3.000000E+01  -3.000000E+01  -3.000000E+01  -3.000000E+01  -3.000000E+01  -3.000000E+01  -3.000000E+01  -3.000000E+01  -3.000000E+01  -3.000000E+01  -3.000000E+01  -3.000000E+01  -3.000000E+01  -3.000000E+01  -3.000000E+01  -3.000000E+01  -3.000000E+01  -3.000000E+01  -3.000000E+01  -3.000000E+01  -3.000000E+01  -3.000000E+01  -3.000000E+01  -3.000000E+01  -3.000000E+01  -3.000000E+01  -3.000000E+01  -3.000000E+01  -3.000000E+01  -3.000000E+01  -3.000000E+01  -3.000000E+01  -3.000000E+01  -3.000000E+01  -3.000000E+01  -3.000000E+01  -3.000000E+01  -3.000000E+01  -3.000000E+01  -3.000000E+01  -3.000000E+01  -3.000000E+01  -3.000000E+01  -3.000000E+01  -3.000000E+01  -3.000000E+01  -3.000000E+01  -3.000000E+01  -3.000000E+01  -3.000000E+01  -3.000000E+01  -3.000000E+01  -3.000000E+01  -3.000000E+01  -3.000000E+01  -3.000000E+01  -3.000000E+01  -3.000000E+01  -3.000000E+01  -3.000000E+01  -3.000000E+01  -3.000000E+01  -3.000000E+01  -3.000000E+01  -3.000000E+01  -3.000000E+01  -3.000000E+01  -3.000000E+01  -3.000000E+01  -3.000000E+01  -3.000000E+01  -3.000000E+01  -3.000000E+01  -3.000000E+01  -3.000000E+01  -3.000000E+01  -3.000000E+01  -3.000000E+01  -3.000000E+01  -3.000000E+01  -3.000000E+01  -3.000000E+01  -3.000000E+01  -3.000000E+01  -3.000000E+01  -3.000000E+01  -3.000000E+01  -3.000000E+01  -3.000000E+01  -3.000000E+01  -3.000000E+01  -3.000000E+01  -3.000000E+01  -3.000000E+01  -3.000000E+01  -3.000000E+01  -3.000000E+01  -3.000000E+01  -3.000000E+01  -3.000000E+01  -3.000000E+01  -3.000000E+01  -3.000000E+01  -3.000000E+01  -3.000000E+01  -3.000000E+01  -3.000000E+01  -3.000000E+01  -3.000000E+01  -3.000000E+01  -3.000000E+01  -3.000000E+01  -3.000000E+01  -3.000000E+01
INTERNAL               1 (250E15.6) -1 #botm layer 4                  
  -3.500000E+01  -3.500000E+01  -3.500000E+01  -3.500000E+01  -3.500000E+01  -3.500000E+01  -3.500000E+01  -3.500000E+01  -3.500000E+01  -3.500000E+01  -3.500000E+01  -3.500000E+01  -3.500000E+01  -3.500000E+01  -3.500000E+01  -3.500000E+01  -3.500000E+01  -3.500000E+01  -3.500000E+01  -3.500000E+01  -3.500000E+01  -3.500000E+01  -3.500000E+01  -3.500000E+01  -3.500000E+01  -3.500000E+01  -3.500000E+01  -3.500000E+01  -3.500000E+01  -3.500000E+01  -3.500000E+01  -3.500000E+01  -3.500000E+01  -3.500000E+01  -3.500000E+01  -3.500000E+01  -3.500000E+01  -3.500000E+01  -3.500000E+01  -3.500000E+01  -3.500000E+01  -3.500000E+01  -3.500000E+01  -3.500000E+01  -3.500000E+01  -3.500000E+01  -3.500000E+01  -3.500000E+01  -3.500000E+01  -3.500000E+01  -3.500000E+01  -3.500000E+01  -3.500000E+01  -3.500000E+01  -3.500000E+01  -3.500000E+01  -3.500000E+01  -3.500000E+01  -3.500000E+01  -3.500000E+01  -3.500000E+01  -3.500000E+01  -3.500000E+01  -3.500000E+01  -3.500000E+01  -3.500000E+01  -3.500000E+01  -3.500000E+01  -3.500000E+01  -3.500000E+01  -3.500000E+01  -3.500000E+01  -3.500000E+01  -3.500000E+01  -3.500000E+01  -3.500000E+01  -3.500000E+01  -3.500000E+01  -3.500000E+01  -3.500000E+01  -3.500000E+01  -3.500000E+01  -3.500000E+01  -3.500000E+01  -3.500000E+01  -3.500000E+01  -3.500000E+01  -3.500000E+01  -3.500000E+01  -3.500000E+01  -3.500000E+01  -3.500000E+01  -3.500000E+01  -3.500000E+01  -3.500000E+01  -3.500000E+01  -3.500000E+01  -3.500000E+01  -3.500000E+01  -3.500000E+01  -3.500000E+01  -3.500000E+01  -3.500000E+01  -3.500000E+01  -3.500000E+01  -3.500000E+01  -3.500000E+01  -3.500000E+01  -3.500000E+01  -3.500000E+01  -3.500000E+01  -3.500000E+01  -3.500000E+01  -3.500000E+01  -3.500000E+01  -3.500000E+01  -3.500000E+01  -3.500000E+01  -3.500000E+01  -3.500000E+01  -3.500000E+01  -3.500000E+01  -3.500000E+01  -3.500000E+01  -3.500000E+01  -3.500000E+01  -3.500000E+01  -3.500000E+01  -3.500000E+01  -3.500000E+01  -3.500000E+01  -3.500000E+01  -3.500000E+01  -3.500000E+01  -3.500000E+01  -3.500000E+01  -3.500000E+01  -3.500000E+01  -3.500000E+01  -3.500000E+01  -3.500000E+01  -3.500000E+01  -3.500000E+01  -3.500000E+01  -3.500000E+01  -3.500000E+01  -3.500000E+01  -3.500000E+01  -3.500000E+01  -3.500000E+01  -3.500000E+01  -3.500000E+01  -3.500000E+01  -3.500000E+01  -3.500000E+01  -3.500000E+01  -3.500000E+01  -3.500000E+01  -3.500000E+01  -3.500000E+01  -3.500000E+01  -3.500000E+01  -3.500000E+01  -3.500000E+01  -3.500000E+01  -3.500000E+01  -3.500000E+01  -3.500000E+01  -3.500000E+01  -3.500000E+01  -3.500000E+01  -3.500000E+01  -3.500000E+01  -3.500000E+01  -3.500000E+01  -3.500000E+01  -3.500000E+01  -3.500000E+01  -3.500000E+01  -3.500000E+01  -3.500000E+01  -3.500000E+01  -3.500000E+01  -3.500000E+01  -3.500000E+01  -3.500000E+01  -3.500000E+01  -3.500000E+01  -3.500000E+01  -3.500000E+01  -3.500000E+01  -3.500000E+01  -3.500000E+01  -3.500000E+01  -3.500000E+01  -3.500000E+01  -3.500000E+01  -3.500000E+01  -3.500000E+01  -3.500000E+01  -3.500000E+01  -3.500000E+01  -3.500000E+01  -3.500000E+01  -3.500000E+01  -3.500000E+01  -3.500000E+01  -3.500000E+01  -3.500000E+01  -3.500000E+01  -3.500000E+01  -3.500000E+01  -3.500000E+01  -3.500000E+01  -3.500000E+01  -3.500000E+01  -3.500000E+01  -3.500000E+01  -3.500000E+01  -3.500000E+01  -3.500000E+01  -3.500000E+01  -3.500000E+01  -3.500000E+01  -3.500000E+01  -3.500000E+01  -3.500000E+01  -3.500000E+01  -3.500000E+01  -3.500000E+01  -3.500000E+01  -3.500000E+01  -3.500000E+01  -3.500000E+01  -3.500000E+01  -3.500000E+01  -3.500000E+01  -3.500000E+01  -3.500000E+01  -3.500000E+01  -3.500000E+01  -3.500000E+01  -3.500000E+01  -3.500000E+01  -3.500000E+01  -3.500000E+01  -3.500000E+01  -3.500000E+01  -3.500000E+01  -3.500000E+01
INTERNAL               1 (250E15.6) -1 #botm layer 5                  
  -5.000000E+01  -5.000000E+01  -5.000000E+01  -5.000000E+01  -5.000000E+01  -5.000000E+01  -5.000000E+01  -5.000000E+01  -5.000000E+01  -5.000000E+01  -5.000000E+01  -5.000000E+01  -5.000000E+01  -5.000000E+01  -5.000000E+01  -5.000000E+01  -5.000000E+01  -5.000000E+01  -5.000000E+01  -5.000000E+01  -5.000000E+01  -5.000000E+01  -5.000000E+01  -5.000000E+01  -5.000000E+01  -5.000000E+01  -5.000000E+01  -5.000000E+01  -5.000000E+01  -5.000000E+01  -5.000000E+01  -5.000000E+01  -5.000000E+01  -5.000000E+01  -5.000000E+01  -5.000000E+01  -5.000000E+01  -5.000000E+01  -5.000000E+01  -5.000000E+01  -5.000000E+01  -5.000000E+01  -5.000000E+01  -5.000000E+01  -5.000000E+01  -5.000000E+01  -5.000000E+01  -5.000000E+01  -5.000000E+01  -5.000000E+01  -5.000000E+01  -5.000000E+01  -5.000000E+01  -5.000000E+01  -5.000000E+01  -5.000000E+01  -5.000000E+01  -5.000000E+01  -5.000000E+01  -5.000000E+01  -5.000000E+01  -5.000000E+01  -5.000000E+01  -5.000000E+01  -5.000000E+01  -5.000000E+01  -5.000000E+01  -5.000000E+01  -5.000000E+01  -5.000000E+01  -5.000000E+01  -5.000000E+01  -5.000000E+01  -5.000000E+01  -5.000000E+01  -5.000000E+01  -5.000000E+01  -5.000000E+01  -5.000000E+01  -5.000000E+01  -5.000000E+01  -5.000000E+01  -5.000000E+01  -5.000000E+01  -5.000000E+01  -5.000000E+01  -5.000000E+01  -5.000000E+01  -5.000000E+01  -5.000000E+01  -5.000000E+01  -5.000000E+01  -5.000000E+01  -5.000000E+01  -5.000000E+01  -5.000000E+01  -5.000000E+01  -5.000000E+01  -5.000000E+01  -5.000000E+01  -5.000000E+01  -5.000000E+01  -5.000000E+01  -5.000000E+01  -5.000000E+01  -5.000000E+01  -5.000000E+01  -5.000000E+01  -5.000000E+01  -5.000000E+01  -5.000000E+01  -5.000000E+01  -5.000000E+01  -5.000000E+01  -5.000000E+01  -5.000000E+01  -5.000000E+01  -5.000000E+01  -5.000000E+01  -5.000000E+01  -5.000000E+01  -5.000000E+01  -5.000000E+01  -5.000000E+01  -5.000000E+01  -5.000000E+01  -5.000000E+01  -5.000000E+01  -5.000000E+01  -5.000000E+01  -5.000000E+01  -5.000000E+01  -5.000000E+01  -5.000000E+01  -5.000000E+01  -5.000000E+01  -5.000000E+01  -5.000000E+01  -5.000000E+01  -5.000000E+01  -5.000000E+01  -5.000000E+01  -5.000000E+01  -5.000000E+01  -5.000000E+01  -5.000000E+01  -5.000000E+01  -5.000000E+01  -5.000000E+01  -5.000000E+01  -5.000000E+01  -5.000000E+01  -5.000000E+01  -5.000000E+01  -5.000000E+01  -5.000000E+01  -5.000000E+01  -5.000000E+01  -5.000000E+01  -5.000000E+01  -5.000000E+01  -5.000000E+01  -5.000000E+01  -5.000000E+01  -5.000000E+01  -5.000000E+01  -5.000000E+01  -5.000000E+01  -5.000000E+01  -5.000000E+01  -5.000000E+01  -5.000000E+01  -5.000000E+01  -5.000000E+01  -5.000000E+01  -5.000000E+01  -5.000000E+01  -5.000000E+01  -5.000000E+01  -5.000000E+01  -5.000000E+01  -5.000000E+01  -5.000000E+01  -5.000000E+01  -5.000000E+01  -5.000000E+01  -5.000000E+01  -5.000000E+01  -5.000000E+01  -5.000000E+01  -5.000000E+01  -5.000000E+01  -5.000000E+01  -5.000000E+01  -5.000000E+01  -5.000000E+01  -5.000000E+01  -5.000000E+01  -5.000000E+01  -5.000000E+01  -5.000000E+01  -5.000000E+01  -5.000000E+01  -5.000000E+01  -5.000000E+01  -5.000000E+01  -5.000000E+01  -5.000000E+01  -5.000000E+01  -5.000000E+01  -5.000000E+01  -5.000000E+01  -5.000000E+01  -5.000000E+01  -5.000000E+01  -5.000000E+01  -5.000000E+01  -5.000000E+01  -5.000000E+01  -5.000000E+01  -5.000000E+01  -5.000000E+01  -5.000000E+01  -5.000000E+01  -5.000000E+01  -5.000000E+01  -5.000000E+01  -5.000000E+01  -5.000000E+01  -5.000000E+01  -5.000000E+01  -5.000000E+01  -5.000000E+01  -5.000000E+01  -5.000000E+01  -5.000000E+01  -5.000000E+01  -5.000000E+01  -5.000000E+01  -5.000000E+01  -5.000000E+01  -5.000000E+01  -5.000000E+01  -5.000000E+01  -5.000000E+01  -5.000000E+01  -5.000000E+01  -5.000000E+01  -5.000000E+01  -5.000000E+01
INTERNAL               1 (250E15.6) -1 #botm layer 6                  