# EVT package for  MODFLOW-2005, generated by Flopy.
         3        53
         1         1         1         1 # Evapotranspiration  dataset 5 for stress period 1
CONSTANT    0.000000E+00                           #surf1                         
CONSTANT    3.000000E-04                           #evtr1                         
CONSTANT    1.000000E+00                           #exdp1                         
        -1         1        -1        -1 # Evapotranspiration  dataset 5 for stress period 2
CONSTANT    2.000000E-04                           #evtr2                         
        -1         1        -1        -1 # Evapotranspiration  dataset 5 for stress period 3
CONSTANT    3.000000E-04                           #evtr3                         
        -1         1        -1        -1 # Evapotranspiration  dataset 5 for stress period 4
CONSTANT    2.000000E-04                           #evtr4                         
        -1         1        -1        -1 # Evapotranspiration  dataset 5 for stress period 5
CONSTANT    2.000000E-04                           #evtr5                         
        -1         1        -1        -1 # Evapotranspiration  dataset 5 for stress period 6
CONSTANT    4.000000E-04                           #evtr6                         
        -1         1        -1        -1 # Evapotranspiration  dataset 5 for stress period 7
CONSTANT    3.000000E-04                           #evtr7                         
        -1         1        -1        -1 # Evapotranspiration  dataset 5 for stress period 8
CONSTANT    2.000000E-04                           #evtr8                         
        -1         1        -1        -1 # Evapotranspiration  dataset 5 for stress period 9
CONSTANT    2.000000E-04                           #evtr9                         
        -1         1        -1        -1 # Evapotranspiration  dataset 5 for stress period 10
CONSTANT    1.000000E-04                           #evtr10                        
        -1         1        -1        -1 # Evapotranspiration  dataset 5 for stress period 11
CONSTANT    1.000000E-04                           #evtr11                        
        -1         1        -1        -1 # Evapotranspiration  dataset 5 for stress period 12
CONSTANT    2.000000E-04                           #evtr12                        
        -1         1        -1        -1 # Evapotranspiration  dataset 5 for stress period 13
CONSTANT    2.000000E-04                           #evtr13                        
        -1         1        -1        -1 # Evapotranspiration  dataset 5 for stress period 14
CONSTANT    4.000000E-04                           #evtr14                        
        -1         1        -1        -1 # Evapotranspiration  dataset 5 for stress period 15
CONSTANT    1.000000E-04                           #evtr15                        
        -1         1        -1        -1 # Evapotranspiration  dataset 5 for stress period 16
CONSTANT    1.000000E-04                           #evtr16                        
        -1         1        -1        -1 # Evapotranspiration  dataset 5 for stress period 17
CONSTANT    3.000000E-04                           #evtr17                        
        -1         1        -1        -1 # Evapotranspiration  dataset 5 for stress period 18
CONSTANT    1.000000E-04                           #evtr18                        
        -1         1        -1        -1 # Evapotranspiration  dataset 5 for stress period 19
CONSTANT    2.000000E-04                           #evtr19                        
        -1         1        -1        -1 # Evapotranspiration  dataset 5 for stress period 20
CONSTANT    4.000000E-04                           #evtr20                        
        -1         1        -1        -1 # Evapotranspiration  dataset 5 for stress period 21
CONSTANT    2.000000E-04                           #evtr21                        
        -1         1        -1        -1 # Evapotranspiration  dataset 5 for stress period 22
CONSTANT    4.000000E-04                           #evtr22                        
        -1         1        -1        -1 # Evapotranspiration  dataset 5 for stress period 23
CONSTANT    1.000000E-04                           #evtr23                        
        -1         1        -1        -1 # Evapotranspiration  dataset 5 for stress period 24
CONSTANT    1.000000E-04                           #evtr24                        
        -1         1        -1        -1 # Evapotranspiration  dataset 5 for stress period 25
CONSTANT    1.000000E-04                           #evtr25                        
        -1         1        -1        -1 # Evapotranspiration  dataset 5 for stress period 26
CONSTANT    5.000000E-04                           #evtr26                        
        -1         1        -1        -1 # Evapotranspiration  dataset 5 for stress period 27
CONSTANT    2.000000E-04                           #evtr27                        
        -1         1        -1        -1 # Evapotranspiration  dataset 5 for stress period 28
CONSTANT    5.000000E-04                           #evtr28                        
        -1         1        -1        -1 # Evapotranspiration  dataset 5 for stress period 29
CONSTANT    2.000000E-04                           #evtr29                        
        -1         1        -1        -1 # Evapotranspiration  dataset 5 for stress period 30
CONSTANT    7.000000E-04                           #evtr30                        
        -1         1        -1        -1 # Evapotranspiration  dataset 5 for stress period 31
CONSTANT    5.000000E-04                           #evtr31                        
        -1         1        -1        -1 # Evapotranspiration  dataset 5 for stress period 32
CONSTANT    5.000000E-04                           #evtr32                        
        -1         1        -1        -1 # Evapotranspiration  dataset 5 for stress period 33
CONSTANT    1.000000E-04                           #evtr33                        
        -1         1        -1        -1 # Evapotranspiration  dataset 5 for stress period 34
CONSTANT    5.000000E-04                           #evtr34                        
        -1         1        -1        -1 # Evapotranspiration  dataset 5 for stress period 35
CONSTANT    2.000000E-04                           #evtr35                        
        -1         1        -1        -1 # Evapotranspiration  dataset 5 for stress period 36
CONSTANT    2.000000E-04                           #evtr36                        
        -1         1        -1        -1 # Evapotranspiration  dataset 5 for stress period 37
CONSTANT    3.000000E-04                           #evtr37                        
        -1         1        -1        -1 # Evapotranspiration  dataset 5 for stress period 38
CONSTANT    1.000000E-04                           #evtr38                        
        -1         1        -1        -1 # Evapotranspiration  dataset 5 for stress period 39
CONSTANT    3.000000E-04                           #evtr39                        
        -1         1        -1        -1 # Evapotranspiration  dataset 5 for stress period 40
CONSTANT    5.000000E-04                           #evtr40                        
        -1         1        -1        -1 # Evapotranspiration  dataset 5 for stress period 41
CONSTANT    4.000000E-04                           #evtr41                        
        -1         1        -1        -1 # Evapotranspiration  dataset 5 for stress period 42
CONSTANT    5.000000E-04                           #evtr42                        
        -1         1        -1        -1 # Evapotranspiration  dataset 5 for stress period 43
CONSTANT    8.000000E-04                           #evtr43                        
        -1         1        -1        -1 # Evapotranspiration  dataset 5 for stress period 44
CONSTANT    3.000000E-04                           #evtr44                        
        -1         1        -1        -1 # Evapotranspiration  dataset 5 for stress period 45
CONSTANT    2.000000E-04                           #evtr45                        
        -1         1        -1        -1 # Evapotranspiration  dataset 5 for stress period 46
CONSTANT    5.000000E-04                           #evtr46                        
        -1         1        -1        -1 # Evapotranspiration  dataset 5 for stress period 47
CONSTANT    4.000000E-04                           #evtr47                        
        -1         1        -1        -1 # Evapotranspiration  dataset 5 for stress period 48
CONSTANT    6.000000E-04                           #evtr48                        
        -1         1        -1        -1 # Evapotranspiration  dataset 5 for stress period 49
CONSTANT    3.000000E-04                           #evtr49                        
        -1         1        -1        -1 # Evapotranspiration  dataset 5 for stress period 50
CONSTANT    2.000000E-04                           #evtr50                        
        -1         1        -1        -1 # Evapotranspiration  dataset 5 for stress period 51
CONSTANT    7.000000E-04                           #evtr51                        
        -1         1        -1        -1 # Evapotranspiration  dataset 5 for stress period 52
CONSTANT    3.000000E-04                           #evtr52                        
        -1         1        -1        -1 # Evapotranspiration  dataset 5 for stress period 53
CONSTANT    2.000000E-04                           #evtr53                        
        -1         1        -1        -1 # Evapotranspiration  dataset 5 for stress period 54
CONSTANT    9.000000E-04                           #evtr54                        
        -1         1        -1        -1 # Evapotranspiration  dataset 5 for stress period 55
CONSTANT    5.000000E-04                           #evtr55                        
        -1         1        -1        -1 # Evapotranspiration  dataset 5 for stress period 56
CONSTANT    3.000000E-04                           #evtr56                        
        -1         1        -1        -1 # Evapotranspiration  dataset 5 for stress period 57
CONSTANT    4.000000E-04                           #evtr57                        
        -1         1        -1        -1 # Evapotranspiration  dataset 5 for stress period 58
CONSTANT    4.000000E-04                           #evtr58                        
        -1         1        -1        -1 # Evapotranspiration  dataset 5 for stress period 59
CONSTANT    1.000000E-04                           #evtr59                        
        -1         1        -1        -1 # Evapotranspiration  dataset 5 for stress period 60
CONSTANT    9.000000E-04                           #evtr60                        
        -1         1        -1        -1 # Evapotranspiration  dataset 5 for stress period 61
CONSTANT    1.200000E-03                           #evtr61                        
        -1         1        -1        -1 # Evapotranspiration  dataset 5 for stress period 62
CONSTANT    1.100000E-03                           #evtr62                        
        -1         1        -1        -1 # Evapotranspiration  dataset 5 for stress period 63
CONSTANT    1.300000E-03                           #evtr63                        
        -1         1        -1        -1 # Evapotranspiration  dataset 5 for stress period 64
CONSTANT    7.000000E-04                           #evtr64                        
        -1         1        -1        -1 # Evapotranspiration  dataset 5 for stress period 65
CONSTANT    1.400000E-03                           #evtr65                        
        -1         1        -1        -1 # Evapotranspiration  dataset 5 for stress period 66
CONSTANT    1.400000E-03                           #evtr66                        
        -1         1        -1        -1 # Evapotranspiration  dataset 5 for stress period 67
CONSTANT    5.000000E-04                           #evtr67                        
        -1         1        -1        -1 # Evapotranspiration  dataset 5 for stress period 68
CONSTANT    1.500000E-03                           #evtr68                        
        -1         1        -1        -1 # Evapotranspiration  dataset 5 for stress period 69
CONSTANT    1.200000E-03                           #evtr69                        
        -1         1        -1        -1 # Evapotranspiration  dataset 5 for stress period 70
CONSTANT    7.000000E-04                           #evtr70                        
        -1         1        -1        -1 # Evapotranspiration  dataset 5 for stress period 71
CONSTANT    7.000000E-04                           #evtr71                        
        -1         1        -1        -1 # Evapotranspiration  dataset 5 for stress period 72
CONSTANT    8.000000E-04                           #evtr72                        
        -1         1        -1        -1 # Evapotranspiration  dataset 5 for stress period 73
CONSTANT    9.000000E-04                           #evtr73                        
        -1         1        -1        -1 # Evapotranspiration  dataset 5 for stress period 74
CONSTANT    7.000000E-04                           #evtr74                        
        -1         1        -1        -1 # Evapotranspiration  dataset 5 for stress period 75
CONSTANT    1.500000E-03                           #evtr75                        
        -1         1        -1        -1 # Evapotranspiration  dataset 5 for stress period 76
CONSTANT    1.600000E-03                           #evtr76                        
        -1         1        -1        -1 # Evapotranspiration  dataset 5 for stress period 77
CONSTANT    1.600000E-03                           #evtr77                        
        -1         1        -1        -1 # Evapotranspiration  dataset 5 for stress period 78
CONSTANT    3.000000E-04                           #evtr78                        
        -1         1        -1        -1 # Evapotranspiration  dataset 5 for stress period 79
CONSTANT    5.000000E-04                           #evtr79                        
        -1         1        -1        -1 # Evapotranspiration  dataset 5 for stress period 80
CONSTANT    1.800000E-03                           #evtr80                        
        -1         1        -1        -1 # Evapotranspiration  dataset 5 for stress period 81
CONSTANT    1.400000E-03                           #evtr81                        
        -1         1        -1        -1 # Evapotranspiration  dataset 5 for stress period 82
CONSTANT    2.200000E-03                           #evtr82                        
        -1         1        -1        -1 # Evapotranspiration  dataset 5 for stress period 83
CONSTANT    1.800000E-03                           #evtr83                        
        -1         1        -1        -1 # Evapotranspiration  dataset 5 for stress period 84
CONSTANT    1.900000E-03                           #evtr84                        
        -1         1        -1        -1 # Evapotranspiration  dataset 5 for stress period 85
CONSTANT    9.000000E-04                           #evtr85                        
        -1         1        -1        -1 # Evapotranspiration  dataset 5 for stress period 86
CONSTANT    1.500000E-03                           #evtr86                        
        -1         1        -1        -1 # Evapotranspiration  dataset 5 for stress period 87
CONSTANT    1.200000E-03                           #evtr87                        
        -1         1        -1        -1 # Evapotranspiration  dataset 5 for stress period 88
CONSTANT    1.200000E-03                           #evtr88                        
        -1         1        -1        -1 # Evapotranspiration  dataset 5 for stress period 89
CONSTANT    7.000000E-04                           #evtr89                        
        -1         1        -1        -1 # Evapotranspiration  dataset 5 for stress period 90
CONSTANT    1.100000E-03                           #evtr90                        
        -1         1        -1        -1 # Evapotranspiration  dataset 5 for stress period 91
CONSTANT    1.600000E-03                           #evtr91                        
        -1         1        -1        -1 # Evapotranspiration  dataset 5 for stress period 92
CONSTANT    2.100000E-03                           #evtr92                        
        -1         1        -1        -1 # Evapotranspiration  dataset 5 for stress period 93
CONSTANT    9.000000E-04                           #evtr93                        
        -1         1        -1        -1 # Evapotranspiration  dataset 5 for stress period 94
CONSTANT    7.000000E-04                           #evtr94                        
        -1         1        -1        -1 # Evapotranspiration  dataset 5 for stress period 95
CONSTANT    1.400000E-03                           #evtr95                        
        -1         1        -1        -1 # Evapotranspiration  dataset 5 for stress period 96
CONSTANT    2.800000E-03                           #evtr96                        
        -1         1        -1        -1 # Evapotranspiration  dataset 5 for stress period 97
CONSTANT    2.500000E-03                           #evtr97                        
        -1         1        -1        -1 # Evapotranspiration  dataset 5 for stress period 98
CONSTANT    2.200000E-03                           #evtr98                        
        -1         1        -1        -1 # Evapotranspiration  dataset 5 for stress period 99
CONSTANT    2.800000E-03                           #evtr99                        
        -1         1        -1        -1 # Evapotranspiration  dataset 5 for stress period 100
CONSTANT    2.500000E-03                           #evtr100                       
        -1         1        -1        -1 # Evapotranspiration  dataset 5 for stress period 101
CONSTANT    1.200000E-03                           #evtr101                       
        -1         1        -1        -1 # Evapotranspiration  dataset 5 for stress period 102
CONSTANT    3.000000E-03                           #evtr102                       
        -1         1        -1        -1 # Evapotranspiration  dataset 5 for stress period 103
CONSTANT    2.900000E-03                           #evtr103                       
        -1         1        -1        -1 # Evapotranspiration  dataset 5 for stress period 104
CONSTANT    2.900000E-03                           #evtr104                       
        -1         1        -1        -1 # Evapotranspiration  dataset 5 for stress period 105
CONSTANT    3.000000E-03                           #evtr105                       
        -1         1        -1        -1 # Evapotranspiration  dataset 5 for stress period 106
CONSTANT    2.300000E-03                           #evtr106                       
        -1         1        -1        -1 # Evapotranspiration  dataset 5 for stress period 107
CONSTANT    3.100000E-03                           #evtr107                       
        -1         1        -1        -1 # Evapotranspiration  dataset 5 for stress period 108
CONSTANT    3.300000E-03                           #evtr108                       
        -1         1        -1        -1 # Evapotranspiration  dataset 5 for stress period 109
CONSTANT    2.600000E-03                           #evtr109                       
        -1         1        -1        -1 # Evapotranspiration  dataset 5 for stress period 110
CONSTANT    2.900000E-03                           #evtr110                       
        -1         1        -1        -1 # Evapotranspiration  dataset 5 for stress period 111
CONSTANT    2.300000E-03                           #evtr111                       
        -1         1        -1        -1 # Evapotranspiration  dataset 5 for stress period 112
CONSTANT    2.600000E-03                           #evtr112                       
        -1         1        -1        -1 # Evapotranspiration  dataset 5 for stress period 113
CONSTANT    3.300000E-03                           #evtr113                       
        -1         1        -1        -1 # Evapotranspiration  dataset 5 for stress period 114
CONSTANT    3.400000E-03                           #evtr114                       
        -1         1        -1        -1 # Evapotranspiration  dataset 5 for stress period 115
CONSTANT    2.600000E-03                           #evtr115                       
        -1         1        -1        -1 # Evapotranspiration  dataset 5 for stress period 116
CONSTANT    3.300000E-03                           #evtr116                       
        -1         1        -1        -1 # Evapotranspiration  dataset 5 for stress period 117
CONSTANT    3.600000E-03                           #evtr117                       
        -1         1        -1        -1 # Evapotranspiration  dataset 5 for stress period 118
CONSTANT    3.300000E-03                           #evtr118                       
        -1         1        -1        -1 # Evapotranspiration  dataset 5 for stress period 119
CONSTANT    3.300000E-03                           #evtr119                       
        -1         1        -1        -1 # Evapotranspiration  dataset 5 for stress period 120
CONSTANT    2.200000E-03                           #evtr120                       
        -1         1        -1        -1 # Evapotranspiration  dataset 5 for stress period 121
CONSTANT    2.100000E-03                           #evtr121                       
        -1         1        -1        -1 # Evapotranspiration  dataset 5 for stress period 122
CONSTANT    5.000000E-04                           #evtr122                       
        -1         1        -1        -1 # Evapotranspiration  dataset 5 for stress period 123
CONSTANT    5.000000E-04                           #evtr123                       
        -1         1        -1        -1 # Evapotranspiration  dataset 5 for stress period 124
CONSTANT    2.400000E-03                           #evtr124                       
        -1         1        -1        -1 # Evapotranspiration  dataset 5 for stress period 125
CONSTANT    2.500000E-03                           #evtr125                       
        -1         1        -1        -1 # Evapotranspiration  dataset 5 for stress period 126
CONSTANT    3.200000E-03                           #evtr126                       
        -1         1        -1        -1 # Evapotranspiration  dataset 5 for stress period 127
CONSTANT    1.100000E-03                           #evtr127                       
        -1         1        -1        -1 # Evapotranspiration  dataset 5 for stress period 128
CONSTANT    7.000000E-04                           #evtr128                       
        -1         1        -1        -1 # Evapotranspiration  dataset 5 for stress period 129
CONSTANT    8.000000E-04                           #evtr129                       
        -1         1        -1        -1 # Evapotranspiration  dataset 5 for stress period 130
CONSTANT    1.500000E-03                           #evtr130                       
        -1         1        -1        -1 # Evapotranspiration  dataset 5 for stress period 131
CONSTANT    2.600000E-03                           #evtr131                       
        -1         1        -1        -1 # Evapotranspiration  dataset 5 for stress period 132
CONSTANT    5.000000E-04                           #evtr132                       
        -1         1        -1        -1 # Evapotranspiration  dataset 5 for stress period 133
CONSTANT    8.000000E-04                           #evtr133                       
        -1         1        -1        -1 # Evapotranspiration  dataset 5 for stress period 134
CONSTANT    3.000000E-03                           #evtr134                       
        -1         1        -1        -1 # Evapotranspiration  dataset 5 for stress period 135
CONSTANT    2.800000E-03                           #evtr135                       
        -1         1        -1        -1 # Evapotranspiration  dataset 5 for stress period 136
CONSTANT    2.600000E-03                           #evtr136                       
        -1         1        -1        -1 # Evapotranspiration  dataset 5 for stress period 137
CONSTANT    3.800000E-03                           #evtr137                       
        -1         1        -1        -1 # Evapotranspiration  dataset 5 for stress period 138
CONSTANT    3.700000E-03                           #evtr138                       
        -1         1        -1        -1 # Evapotranspiration  dataset 5 for stress period 139
CONSTANT    4.200000E-03                           #evtr139                       
        -1         1        -1        -1 # Evapotranspiration  dataset 5 for stress period 140
CONSTANT    4.400000E-03                           #evtr140                       
        -1         1        -1        -1 # Evapotranspiration  dataset 5 for stress period 141
CONSTANT    3.100000E-03                           #evtr141                       
        -1         1        -1        -1 # Evapotranspiration  dataset 5 for stress period 142
CONSTANT    4.500000E-03                           #evtr142                       
        -1         1        -1        -1 # Evapotranspiration  dataset 5 for stress period 143
CONSTANT    4.600000E-03                           #evtr143                       
        -1         1        -1        -1 # Evapotranspiration  dataset 5 for stress period 144
CONSTANT    4.100000E-03                           #evtr144                       
        -1         1        -1        -1 # Evapotranspiration  dataset 5 for stress period 145
CONSTANT    3.800000E-03                           #evtr145                       
        -1         1        -1        -1 # Evapotranspiration  dataset 5 for stress period 146
CONSTANT    2.100000E-03                           #evtr146                       
        -1         1        -1        -1 # Evapotranspiration  dataset 5 for stress period 147
CONSTANT    1.800000E-03                           #evtr147                       
        -1         1        -1        -1 # Evapotranspiration  dataset 5 for stress period 148
CONSTANT    3.800000E-03                           #evtr148                       
        -1         1        -1        -1 # Evapotranspiration  dataset 5 for stress period 149
CONSTANT    2.800000E-03                           #evtr149                       
        -1         1        -1        -1 # Evapotranspiration  dataset 5 for stress period 150
CONSTANT    1.300000E-03                           #evtr150                       
        -1         1        -1        -1 # Evapotranspiration  dataset 5 for stress period 151
CONSTANT    1.900000E-03                           #evtr151                       
        -1         1        -1        -1 # Evapotranspiration  dataset 5 for stress period 152
CONSTANT    2.700000E-03                           #evtr152                       
        -1         1        -1        -1 # Evapotranspiration  dataset 5 for stress period 153
CONSTANT    4.800000E-03                           #evtr153                       
        -1         1        -1        -1 # Evapotranspiration  dataset 5 for stress period 154
CONSTANT    5.000000E-03                           #evtr154                       
        -1         1        -1        -1 # Evapotranspiration  dataset 5 for stress period 155
CONSTANT    5.100000E-03                           #evtr155                       
        -1         1        -1        -1 # Evapotranspiration  dataset 5 for stress period 156
CONSTANT    5.000000E-03                           #evtr156                       
        -1         1        -1        -1 # Evapotranspiration  dataset 5 for stress period 157
CONSTANT    1.800000E-03                           #evtr157                       
        -1         1        -1        -1 # Evapotranspiration  dataset 5 for stress period 158
CONSTANT    1.700000E-03                           #evtr158                       
        -1         1        -1        -1 # Evapotranspiration  dataset 5 for stress period 159
CONSTANT    2.300000E-03                           #evtr159                       
        -1         1        -1        -1 # Evapotranspiration  dataset 5 for stress period 160
CONSTANT    1.500000E-03                           #evtr160                       
        -1         1        -1        -1 # Evapotranspiration  dataset 5 for stress period 161
CONSTANT    1.100000E-03                           #evtr161                       
        -1         1        -1        -1 # Evapotranspiration  dataset 5 for stress period 162
CONSTANT    8.000000E-04                           #evtr162                       
        -1         1        -1        -1 # Evapotranspiration  dataset 5 for stress period 163
CONSTANT    4.400000E-03                           #evtr163                       
        -1         1        -1        -1 # Evapotranspiration  dataset 5 for stress period 164
CONSTANT    2.900000E-03                           #evtr164                       
        -1         1        -1        -1 # Evapotranspiration  dataset 5 for stress period 165
CONSTANT    4.700000E-03                           #evtr165                       
        -1         1        -1        -1 # Evapotranspiration  dataset 5 for stress period 166
CONSTANT    3.900000E-03                           #evtr166                       
        -1         1        -1        -1 # Evapotranspiration  dataset 5 for stress period 167
CONSTANT    4.700000E-03                           #evtr167                       
        -1         1        -1        -1 # Evapotranspiration  dataset 5 for stress period 168