# SMS package for  MODFLOW-2005, generated by Flopy.
0.0001 0.0001 100 20 2 0 2
bcgs 3 0 0 0.1 1.0
