# DRN package for  MODFLOW-2005, generated by Flopy.
      3031        53
      3031         0 # stress period 1
         1         1         2           -0.13             0.2
         1         1         3           -0.13             0.2
         1         1         4           -0.13             0.2
         1         1         5           -0.13             0.2
         1         1         6           -0.13             0.2
         1         1         7           -0.13             0.2
         1         1         8           -0.13             0.2
         1         1         9           -0.13             0.2
         1         1        10           -0.13             0.2
         1         1        11           -0.13             0.2
         1         1        12           -0.13             0.2
         1         1        13           -0.13             0.2
         1         1        14           -0.13             0.2
         1         1        15           -0.13             0.2
         1         1        16           -0.13             0.2
         1         1        17           -0.13             0.2
         1         1        18           -0.13             0.2
         1         1        19           -0.13             0.2
         1         1        20           -0.13             0.2
         1         1        21           -0.13             0.2
         1         1        22           -0.13             0.2
         1         1        23           -0.13             0.2
         1         1        24           -0.13             0.2
         1         1        25           -0.13             0.2
         1         1        26           -0.13             0.2
         1         1        27           -0.13             0.2
         1         1        28           -0.13             0.2
         1         1        29           -0.13             0.2
         1         1        30           -0.13             0.2
         1         1        31           -0.13             0.2
         1         1        32           -0.13             0.2
         1         1        33           -0.13             0.2
         1         1        34           -0.13             0.2
         1         1        35           -0.13             0.2
         1         1        36           -0.13             0.2
         1         1        37           -0.13             0.2
         1         1        38           -0.13             0.2
         1         1        39           -0.13             0.2
         1         1        40           -0.13             0.2
         1         1        41           -0.13             0.2
         1         1        42           -0.13             0.2
         1         1        43           -0.13             0.2
         1         1        44           -0.13             0.2
         1         1        45           -0.13             0.2
         1         1        46           -0.13             0.2
         1         1        47           -0.13             0.2
         1         1        48           -0.13             0.2
         1         1        49           -0.13             0.2
         1         1        50           -0.13             0.2
         1         2         2           -0.08             0.2
         1         2         3           -0.08             0.2
         1         2         4           -0.08             0.2
         1         2         5           -0.08             0.2
         1         2         6           -0.08             0.2
         1         2         7           -0.08             0.2
         1         2         8           -0.08             0.2
         1         2         9           -0.08             0.2
         1         2        10           -0.08             0.2
         1         2        11           -0.08             0.2
         1         2        12           -0.08             0.2
         1         2        13           -0.08             0.2
         1         2        14           -0.08             0.2
         1         2        15           -0.08             0.2
         1         2        16           -0.08             0.2
         1         2        17           -0.08             0.2
         1         2        18           -0.08             0.2
         1         2        19           -0.08             0.2
         1         2        20           -0.08             0.2
         1         2        21           -0.08             0.2
         1         2        22           -0.08             0.2
         1         2        23           -0.08             0.2
         1         2        24           -0.08             0.2
         1         2        25           -0.08             0.2
         1         2        26           -0.08             0.2
         1         2        27           -0.08             0.2
         1         2        28           -0.08             0.2
         1         2        29           -0.08             0.2
         1         2        30           -0.08             0.2
         1         2        31           -0.08             0.2
         1         2        32           -0.08             0.2
         1         2        33           -0.08             0.2
         1         2        34           -0.08             0.2
         1         2        35           -0.08             0.2
         1         2        36           -0.08             0.2
         1         2        37           -0.08             0.2
         1         2        38           -0.08             0.2
         1         2        39           -0.08             0.2
         1         2        40           -0.08             0.2
         1         2        41           -0.08             0.2
         1         2        42           -0.08             0.2
         1         2        43           -0.08             0.2
         1         2        44           -0.08             0.2
         1         2        45           -0.08             0.2
         1         2        46           -0.08             0.2
         1         2        47           -0.08             0.2
         1         2        48           -0.08             0.2
         1         2        49           -0.08             0.2
         1         2        50           -0.08             0.2
         1         2        51           -0.08             0.2
         1         3         2           -0.06             0.2
         1         3         3           -0.06             0.2
         1         3         4           -0.06             0.2
         1         3         5           -0.06             0.2
         1         3         6           -0.06             0.2
         1         3         7           -0.06             0.2
         1         3         8           -0.06             0.2
         1         3         9           -0.06             0.2
         1         3        10           -0.06             0.2
         1         3        11           -0.06             0.2
         1         3        12           -0.06             0.2
         1         3        13           -0.06             0.2
         1         3        14           -0.06             0.2
         1         3        15           -0.06             0.2
         1         3        16           -0.06             0.2
         1         3        17           -0.06             0.2
         1         3        18           -0.06             0.2
         1         3        19           -0.06             0.2
         1         3        20           -0.06             0.2
         1         3        21           -0.06             0.2
         1         3        22           -0.06             0.2
         1         3        23           -0.06             0.2
         1         3        24           -0.06             0.2
         1         3        25           -0.06             0.2
         1         3        26           -0.06             0.2
         1         3        27           -0.06             0.2
         1         3        28           -0.06             0.2
         1         3        29           -0.06             0.2
         1         3        30           -0.06             0.2
         1         3        31           -0.06             0.2
         1         3        32           -0.06             0.2
         1         3        33           -0.06             0.2
         1         3        34           -0.06             0.2
         1         3        35           -0.06             0.2
         1         3        36           -0.06             0.2
         1         3        37           -0.06             0.2
         1         3        38           -0.06             0.2
         1         3        39           -0.06             0.2
         1         3        40           -0.06             0.2
         1         3        41           -0.06             0.2
         1         3        42           -0.06             0.2
         1         3        43           -0.06             0.2
         1         3        44           -0.06             0.2
         1         3        45           -0.06             0.2
         1         3        46           -0.06             0.2
         1         3        47           -0.06             0.2
         1         3        48           -0.06             0.2
         1         3        49           -0.06             0.2
         1         3        50           -0.06             0.2
         1         3        51           -0.06             0.2
         1         3        52           -0.06             0.2
         1         3        53           -0.06             0.2
         1         3        54           -0.06             0.2
         1         3        55           -0.06             0.2
         1         3        56           -0.06             0.2
         1         3        57           -0.06             0.2
         1         3        58           -0.06             0.2
         1         3        59           -0.06             0.2
         1         3        60           -0.06             0.2
         1         3        61           -0.06             0.2
         1         4         2            0.14             0.2
         1         4         3            0.14             0.2
         1         4         4            0.14             0.2
         1         4         5            0.14             0.2
         1         4         6            0.14             0.2
         1         4         7            0.14             0.2
         1         4         8            0.14             0.2
         1         4         9            0.14             0.2
         1         4        10            0.14             0.2
         1         4        11            0.14             0.2
         1         4        12            0.14             0.2
         1         4        13            0.14             0.2
         1         4        14            0.14             0.2
         1         4        15            0.14             0.2
         1         4        16            0.14             0.2
         1         4        17            0.14             0.2
         1         4        18            0.14             0.2
         1         4        19            0.14             0.2
         1         5         2            0.18             0.2
         1         5         3            0.18             0.2
         1         5         4            0.18             0.2
         1         5         5            0.18             0.2
         1         5         6            0.18             0.2
         1         5         7            0.18             0.2
         1         5         8            0.18             0.2
         1         5         9            0.18             0.2
         1         5        10            0.18             0.2
         1         5        11            0.18             0.2
         1         5        12            0.18             0.2
         1         5        13            0.18             0.2
         1         5        14            0.18             0.2
         1         5        15            0.18             0.2
         1         5        16            0.18             0.2
         1         5        17            0.18             0.2
         1         5        18            0.18             0.2
         1         5        19            0.18             0.2
         1         5        20            0.18             0.2
         1         5        21            0.18             0.2
         1         5        22            0.18             0.2
         1         5        23            0.18             0.2
         1         5        24            0.18             0.2
         1         5        25            0.18             0.2
         1         5        26            0.18             0.2
         1         5        27            0.18             0.2
         1         5        28            0.18             0.2
         1         5        29            0.18             0.2
         1         5        30            0.18             0.2
         1         5        31            0.18             0.2
         1         5        32            0.18             0.2
         1         5        33            0.18             0.2
         1         5        34            0.18             0.2
         1         5        35            0.18             0.2
         1         5        36            0.18             0.2
         1         5        37            0.18             0.2
         1         5        38            0.18             0.2
         1         5        39            0.18             0.2
         1         5        40            0.18             0.2
         1         5        41            0.18             0.2
         1         5        42            0.18             0.2
         1         5        43            0.18             0.2
         1         5        44            0.18             0.2
         1         5        45            0.18             0.2
         1         5        46            0.18             0.2
         1         5        47            0.18             0.2
         1         5        48            0.18             0.2
         1         6         2            0.15             0.2
         1         6         3            0.15             0.2
         1         6         4            0.15             0.2
         1         6         5            0.15             0.2
         1         6         6            0.15             0.2
         1         6         7            0.15             0.2
         1         6         8            0.15             0.2
         1         6         9            0.15             0.2
         1         6        10            0.15             0.2
         1         6        11            0.15             0.2
         1         6        12            0.15             0.2
         1         6        13            0.15             0.2
         1         6        14            0.15             0.2
         1         6        15            0.15             0.2
         1         6        16            0.15             0.2
         1         6        17            0.15             0.2
         1         6        18            0.15             0.2
         1         6        19            0.15             0.2
         1         6        20            0.15             0.2
         1         6        21            0.15             0.2
         1         6        22            0.15             0.2
         1         6        23            0.15             0.2
         1         6        24            0.15             0.2
         1         6        25            0.15             0.2
         1         6        26            0.15             0.2
         1         6        27            0.15             0.2
         1         6        28            0.15             0.2
         1         6        29            0.15             0.2
         1         6        30            0.15             0.2
         1         6        31            0.15             0.2
         1         6        32            0.15             0.2
         1         6        33            0.15             0.2
         1         6        34            0.15             0.2
         1         6        35            0.15             0.2
         1         6        36            0.15             0.2
         1         6        37            0.15             0.2
         1         6        38            0.15             0.2
         1         6        39            0.15             0.2
         1         6        40            0.15             0.2
         1         6        41            0.15             0.2
         1         6        42            0.15             0.2
         1         6        43            0.15             0.2
         1         6        44            0.15             0.2
         1         6        45            0.15             0.2
         1         6        46            0.15             0.2
         1         6        47            0.15             0.2
         1         6        48            0.15             0.2
         1         6        49            0.15             0.2
         1         6        50            0.15             0.2
         1         6        51            0.15             0.2
         1         6        52            0.15             0.2
         1         6        53            0.15             0.2
         1         6        54            0.15             0.2
         1         6        55            0.15             0.2
         1         6        56            0.15             0.2
         1         6        57            0.15             0.2
         1         6        58            0.15             0.2
         1         6        59            0.15             0.2
         1         6        60            0.15             0.2
         1         6        61            0.15             0.2
         1         6        62            0.15             0.2
         1         6        63            0.15             0.2
         1         6        64            0.15             0.2
         1         6        65            0.15             0.2
         1         6        66            0.15             0.2
         1         6        67            0.15             0.2
         1         6        68            0.15             0.2
         1         6        69            0.15             0.2
         1         6        70            0.15             0.2
         1         6        71            0.15             0.2
         1         6        72            0.15             0.2
         1         6        73            0.15             0.2
         1         6        74            0.15             0.2
         1         6        75            0.15             0.2
         1         6        76            0.15             0.2
         1         6        77            0.15             0.2
         1         6        78            0.15             0.2
         1         6        79            0.15             0.2
         1         7         2            0.04             0.2
         1         7         3            0.04             0.2
         1         7         4            0.04             0.2
         1         7         5            0.04             0.2
         1         7         6            0.04             0.2
         1         7         7            0.04             0.2
         1         7         8            0.04             0.2
         1         7         9            0.04             0.2
         1         7        10            0.04             0.2
         1         7        11            0.04             0.2
         1         7        12            0.04             0.2
         1         7        13            0.04             0.2
         1         7        14            0.04             0.2
         1         7        15            0.04             0.2
         1         7        16            0.04             0.2
         1         7        17            0.04             0.2
         1         7        18            0.04             0.2
         1         7        19            0.04             0.2
         1         7        20            0.04             0.2
         1         7        21            0.04             0.2
         1         7        22            0.04             0.2
         1         7        23            0.04             0.2
         1         7        24            0.04             0.2
         1         7        25            0.04             0.2
         1         7        26            0.04             0.2
         1         7        27            0.04             0.2
         1         7        28            0.04             0.2
         1         7        29            0.04             0.2
         1         7        30            0.04             0.2
         1         7        31            0.04             0.2
         1         7        32            0.04             0.2
         1         7        33            0.04             0.2
         1         7        34            0.04             0.2
         1         7        35            0.04             0.2
         1         8         2            0.07             0.2
         1         8         3            0.07             0.2
         1         8         4            0.07             0.2
         1         8         5            0.07             0.2
         1         8         6            0.07             0.2
         1         8         7            0.07             0.2
         1         8         8            0.07             0.2
         1         8         9            0.07             0.2
         1         8        10            0.07             0.2
         1         8        11            0.07             0.2
         1         8        12            0.07             0.2
         1         8        13            0.07             0.2
         1         8        14            0.07             0.2
         1         8        15            0.07             0.2
         1         8        16            0.07             0.2
         1         8        17            0.07             0.2
         1         8        18            0.07             0.2
         1         8        19            0.07             0.2
         1         8        20            0.07             0.2
         1         8        21            0.07             0.2
         1         8        22            0.07             0.2
         1         8        23            0.07             0.2
         1         8        24            0.07             0.2
         1         8        25            0.07             0.2
         1         8        26            0.07             0.2
         1         8        27            0.07             0.2
         1         8        28            0.07             0.2
         1         8        29            0.07             0.2
         1         8        30            0.07             0.2
         1         8        31            0.07             0.2
         1         8        32            0.07             0.2
         1         8        33            0.07             0.2
         1         8        34            0.07             0.2
         1         8        35            0.07             0.2
         1         8        36            0.07             0.2
         1         8        37            0.07             0.2
         1         8        38            0.07             0.2
         1         8        39            0.07             0.2
         1         8        40            0.07             0.2
         1         8        41            0.07             0.2
         1         8        42            0.07             0.2
         1         8        43            0.07             0.2
         1         8        44            0.07             0.2
         1         8        45            0.07             0.2
         1         8        46            0.07             0.2
         1         8        47            0.07             0.2
         1         8        48            0.07             0.2
         1         8        49            0.07             0.2
         1         8        50            0.07             0.2
         1         8        51            0.07             0.2
         1         8        52            0.07             0.2
         1         8        53            0.07             0.2
         1         8        54            0.07             0.2
         1         8        55            0.07             0.2
         1         8        56            0.07             0.2
         1         8        57            0.07             0.2
         1         8        58            0.07             0.2
         1         9         2            0.05             0.2
         1         9         3            0.05             0.2
         1         9         4            0.05             0.2
         1         9         5            0.05             0.2
         1         9         6            0.05             0.2
         1         9         7            0.05             0.2
         1         9         8            0.05             0.2
         1         9         9            0.05             0.2
         1         9        10            0.05             0.2
         1         9        11            0.05             0.2
         1         9        12            0.05             0.2
         1         9        13            0.05             0.2
         1         9        14            0.05             0.2
         1         9        15            0.05             0.2
         1         9        16            0.05             0.2
         1         9        17            0.05             0.2
         1         9        18            0.05             0.2
         1         9        19            0.05             0.2
         1         9        20            0.05             0.2
         1         9        21            0.05             0.2
         1         9        22            0.05             0.2
         1         9        23            0.05             0.2
         1         9        24            0.05             0.2
         1         9        25            0.05             0.2
         1         9        26            0.05             0.2
         1         9        27            0.05             0.2
         1         9        28            0.05             0.2
         1         9        29            0.05             0.2
         1         9        30            0.05             0.2
         1         9        31            0.05             0.2
         1         9        32            0.05             0.2
         1         9        33            0.05             0.2
         1         9        34            0.05             0.2
         1         9        35            0.05             0.2
         1         9        36            0.05             0.2
         1        10         2           -0.12             0.2
         1        10         3           -0.12             0.2
         1        10         4           -0.12             0.2
         1        10         5           -0.12             0.2
         1        10         6           -0.12             0.2
         1        10         7           -0.12             0.2
         1        10         8           -0.12             0.2
         1        10         9           -0.12             0.2
         1        10        10           -0.12             0.2
         1        10        11           -0.12             0.2
         1        10        12           -0.12             0.2
         1        10        13           -0.12             0.2
         1        10        14           -0.12             0.2
         1        10        15           -0.12             0.2
         1        10        16           -0.12             0.2
         1        10        17           -0.12             0.2
         1        10        18           -0.12             0.2
         1        10        19           -0.12             0.2
         1        10        20           -0.12             0.2
         1        10        21           -0.12             0.2
         1        10        22           -0.12             0.2
         1        10        23           -0.12             0.2
         1        10        24           -0.12             0.2
         1        10        25           -0.12             0.2
         1        10        26           -0.12             0.2
         1        10        27           -0.12             0.2
         1        10        28           -0.12             0.2
         1        10        29           -0.12             0.2
         1        10        30           -0.12             0.2
         1        10        31           -0.12             0.2
         1        10        32           -0.12             0.2
         1        10        33           -0.12             0.2
         1        10        34           -0.12             0.2
         1        10        35           -0.12             0.2
         1        10        36           -0.12             0.2
         1        10        37           -0.12             0.2
         1        10        38           -0.12             0.2
         1        10        39           -0.12             0.2
         1        10        40           -0.12             0.2
         1        10        41           -0.12             0.2
         1        10        42           -0.12             0.2
         1        10        43           -0.12             0.2
         1        10        44           -0.12             0.2
         1        10        45           -0.12             0.2
         1        10        46           -0.12             0.2
         1        10        47           -0.12             0.2