# DIS package for  MODFLOW-2005, generated by Flopy.
         2        56        99      3652         4         2
  1  0
INTERNAL               1  (99E15.6) -1 #delr                          
   1.000000E+00   1.000000E+00   1.000000E+00   1.000000E+00   1.000000E+00   1.000000E+00   1.000000E+00   1.000000E+00   1.000000E+00   1.000000E+00   1.000000E+00   1.000000E+00   1.000000E+00   1.000000E+00   1.000000E+00   1.000000E+00   1.000000E+00   1.000000E+00   1.000000E+00   1.000000E+00   1.000000E+00   1.000000E+00   1.000000E+00   1.000000E+00   1.000000E+00   1.000000E+00   1.000000E+00   1.000000E+00   1.000000E+00   1.000000E+00   1.000000E+00   1.000000E+00   1.000000E+00   1.000000E+00   1.000000E+00   1.000000E+00   1.000000E+00   1.000000E+00   1.000000E+00   1.000000E+00   1.000000E+00   1.000000E+00   1.000000E+00   1.000000E+00   1.000000E+00   1.000000E+00   1.000000E+00   1.000000E+00   1.000000E+00   1.000000E+00   1.000000E+00   1.000000E+00   1.000000E+00   1.000000E+00   1.000000E+00   1.000000E+00   1.000000E+00   1.000000E+00   1.000000E+00   1.000000E+00   1.000000E+00   1.000000E+00   1.000000E+00   1.000000E+00   1.000000E+00   1.000000E+00   1.000000E+00   1.000000E+00   1.000000E+00   1.000000E+00   1.000000E+00   1.000000E+00   1.000000E+00   1.000000E+00   1.000000E+00   1.000000E+00   1.000000E+00   1.000000E+00   1.000000E+00   1.000000E+00   1.000000E+00   1.000000E+00   1.000000E+00   1.000000E+00   1.000000E+00   1.000000E+00   1.000000E+00   1.000000E+00   1.000000E+00   1.000000E+00   1.000000E+00   1.000000E+00   1.000000E+00   1.000000E+00   1.000000E+00   1.000000E+00   1.000000E+00   1.000000E+00   1.000000E+00
INTERNAL               1  (56E15.6) -1 #delc                          
   1.000000E+00   1.000000E+00   1.000000E+00   1.000000E+00   1.000000E+00   1.000000E+00   1.000000E+00   1.000000E+00   1.000000E+00   1.000000E+00   1.000000E+00   1.000000E+00   1.000000E+00   1.000000E+00   1.000000E+00   1.000000E+00   1.000000E+00   1.000000E+00   1.000000E+00   1.000000E+00   1.000000E+00   1.000000E+00   1.000000E+00   1.000000E+00   1.000000E+00   1.000000E+00   1.000000E+00   1.000000E+00   1.000000E+00   1.000000E+00   1.000000E+00   1.000000E+00   1.000000E+00   1.000000E+00   1.000000E+00   1.000000E+00   1.000000E+00   1.000000E+00   1.000000E+00   1.000000E+00   1.000000E+00   1.000000E+00   1.000000E+00   1.000000E+00   1.000000E+00   1.000000E+00   1.000000E+00   1.000000E+00   1.000000E+00   1.000000E+00   1.000000E+00   1.000000E+00   1.000000E+00   1.000000E+00   1.000000E+00   1.000000E+00
INTERNAL               1  (99E15.6) -1 #model_top                     
  -1.300000E-01  -1.300000E-01  -1.300000E-01  -1.300000E-01  -1.300000E-01  -1.300000E-01  -1.300000E-01  -1.300000E-01  -1.300000E-01  -1.300000E-01  -1.300000E-01  -1.300000E-01  -1.300000E-01  -1.300000E-01  -1.300000E-01  -1.300000E-01  -1.300000E-01  -1.300000E-01  -1.300000E-01  -1.300000E-01  -1.300000E-01  -1.300000E-01  -1.300000E-01  -1.300000E-01  -1.300000E-01  -1.300000E-01  -1.300000E-01  -1.300000E-01  -1.300000E-01  -1.300000E-01  -1.300000E-01  -1.300000E-01  -1.300000E-01  -1.300000E-01  -1.300000E-01  -1.300000E-01  -1.300000E-01  -1.300000E-01  -1.300000E-01  -1.300000E-01  -1.300000E-01  -1.300000E-01  -1.300000E-01  -1.300000E-01  -1.300000E-01  -1.300000E-01  -1.300000E-01  -1.300000E-01  -1.300000E-01  -1.300000E-01  -1.300000E-01  -1.300000E-01  -1.300000E-01  -1.300000E-01  -1.300000E-01  -1.300000E-01  -1.300000E-01  -1.300000E-01  -1.300000E-01  -1.300000E-01  -1.300000E-01  -1.300000E-01  -1.300000E-01  -1.300000E-01  -1.300000E-01  -1.300000E-01  -1.300000E-01  -1.300000E-01  -1.300000E-01  -1.300000E-01  -1.300000E-01  -1.300000E-01  -1.300000E-01  -1.300000E-01  -1.300000E-01  -1.300000E-01  -1.300000E-01  -1.300000E-01  -1.300000E-01  -1.300000E-01  -1.300000E-01  -1.300000E-01  -1.300000E-01  -1.300000E-01  -1.300000E-01  -1.300000E-01  -1.300000E-01  -1.300000E-01  -1.300000E-01  -1.300000E-01  -1.300000E-01  -1.300000E-01  -1.300000E-01  -1.300000E-01  -1.300000E-01  -1.300000E-01  -1.300000E-01  -1.300000E-01  -1.300000E-01
  -8.000000E-02  -8.000000E-02  -8.000000E-02  -8.000000E-02  -8.000000E-02  -8.000000E-02  -8.000000E-02  -8.000000E-02  -8.000000E-02  -8.000000E-02  -8.000000E-02  -8.000000E-02  -8.000000E-02  -8.000000E-02  -8.000000E-02  -8.000000E-02  -8.000000E-02  -8.000000E-02  -8.000000E-02  -8.000000E-02  -8.000000E-02  -8.000000E-02  -8.000000E-02  -8.000000E-02  -8.000000E-02  -8.000000E-02  -8.000000E-02  -8.000000E-02  -8.000000E-02  -8.000000E-02  -8.000000E-02  -8.000000E-02  -8.000000E-02  -8.000000E-02  -8.000000E-02  -8.000000E-02  -8.000000E-02  -8.000000E-02  -8.000000E-02  -8.000000E-02  -8.000000E-02  -8.000000E-02  -8.000000E-02  -8.000000E-02  -8.000000E-02  -8.000000E-02  -8.000000E-02  -8.000000E-02  -8.000000E-02  -8.000000E-02  -8.000000E-02  -8.000000E-02  -8.000000E-02  -8.000000E-02  -8.000000E-02  -8.000000E-02  -8.000000E-02  -8.000000E-02  -8.000000E-02  -8.000000E-02  -8.000000E-02  -8.000000E-02  -8.000000E-02  -8.000000E-02  -8.000000E-02  -8.000000E-02  -8.000000E-02  -8.000000E-02  -8.000000E-02  -8.000000E-02  -8.000000E-02  -8.000000E-02  -8.000000E-02  -8.000000E-02  -8.000000E-02  -8.000000E-02  -8.000000E-02  -8.000000E-02  -8.000000E-02  -8.000000E-02  -8.000000E-02  -8.000000E-02  -8.000000E-02  -8.000000E-02  -8.000000E-02  -8.000000E-02  -8.000000E-02  -8.000000E-02  -8.000000E-02  -8.000000E-02  -8.000000E-02  -8.000000E-02  -8.000000E-02  -8.000000E-02  -8.000000E-02  -8.000000E-02  -8.000000E-02  -8.000000E-02  -8.000000E-02
  -6.000000E-02  -6.000000E-02  -6.000000E-02  -6.000000E-02  -6.000000E-02  -6.000000E-02  -6.000000E-02  -6.000000E-02  -6.000000E-02  -6.000000E-02  -6.000000E-02  -6.000000E-02  -6.000000E-02  -6.000000E-02  -6.000000E-02  -6.000000E-02  -6.000000E-02  -6.000000E-02  -6.000000E-02  -6.000000E-02  -6.000000E-02  -6.000000E-02  -6.000000E-02  -6.000000E-02  -6.000000E-02  -6.000000E-02  -6.000000E-02  -6.000000E-02  -6.000000E-02  -6.000000E-02  -6.000000E-02  -6.000000E-02  -6.000000E-02  -6.000000E-02  -6.000000E-02  -6.000000E-02  -6.000000E-02  -6.000000E-02  -6.000000E-02  -6.000000E-02  -6.000000E-02  -6.000000E-02  -6.000000E-02  -6.000000E-02  -6.000000E-02  -6.000000E-02  -6.000000E-02  -6.000000E-02  -6.000000E-02  -6.000000E-02  -6.000000E-02  -6.000000E-02  -6.000000E-02  -6.000000E-02  -6.000000E-02  -6.000000E-02  -6.000000E-02  -6.000000E-02  -6.000000E-02  -6.000000E-02  -6.000000E-02  -6.000000E-02  -6.000000E-02  -6.000000E-02  -6.000000E-02  -6.000000E-02  -6.000000E-02  -6.000000E-02  -6.000000E-02  -6.000000E-02  -6.000000E-02  -6.000000E-02  -6.000000E-02  -6.000000E-02  -6.000000E-02  -6.000000E-02  -6.000000E-02  -6.000000E-02  -6.000000E-02  -6.000000E-02  -6.000000E-02  -6.000000E-02  -6.000000E-02  -6.000000E-02  -6.000000E-02  -6.000000E-02  -6.000000E-02  -6.000000E-02  -6.000000E-02  -6.000000E-02  -6.000000E-02  -6.000000E-02  -6.000000E-02  -6.000000E-02  -6.000000E-02  -6.000000E-02  -6.000000E-02  -6.000000E-02  -6.000000E-02
   1.400000E-01   1.400000E-01   1.400000E-01   1.400000E-01   1.400000E-01   1.400000E-01   1.400000E-01   1.400000E-01   1.400000E-01   1.400000E-01   1.400000E-01   1.400000E-01   1.400000E-01   1.400000E-01   1.400000E-01   1.400000E-01   1.400000E-01   1.400000E-01   1.400000E-01   1.400000E-01   1.400000E-01   1.400000E-01   1.400000E-01   1.400000E-01   1.400000E-01   1.400000E-01   1.400000E-01   1.400000E-01   1.400000E-01   1.400000E-01   1.400000E-01   1.400000E-01   1.400000E-01   1.400000E-01   1.400000E-01   1.400000E-01   1.400000E-01   1.400000E-01   1.400000E-01   1.400000E-01   1.400000E-01   1.400000E-01   1.400000E-01   1.400000E-01   1.400000E-01   1.400000E-01   1.400000E-01   1.400000E-01   1.400000E-01   1.400000E-01   1.400000E-01   1.400000E-01   1.400000E-01   1.400000E-01   1.400000E-01   1.400000E-01   1.400000E-01   1.400000E-01   1.400000E-01   1.400000E-01   1.400000E-01   1.400000E-01   1.400000E-01   1.400000E-01   1.400000E-01   1.400000E-01   1.400000E-01   1.400000E-01   1.400000E-01   1.400000E-01   1.400000E-01   1.400000E-01   1.400000E-01   1.400000E-01   1.400000E-01   1.400000E-01   1.400000E-01   1.400000E-01   1.400000E-01   1.400000E-01   1.400000E-01   1.400000E-01   1.400000E-01   1.400000E-01   1.400000E-01   1.400000E-01   1.400000E-01   1.400000E-01   1.400000E-01   1.400000E-01   1.400000E-01   1.400000E-01   1.400000E-01   1.400000E-01   1.400000E-01   1.400000E-01   1.400000E-01   1.400000E-01   1.400000E-01
   1.800000E-01   1.800000E-01   1.800000E-01   1.800000E-01   1.800000E-01   1.800000E-01   1.800000E-01   1.800000E-01   1.800000E-01   1.800000E-01   1.800000E-01   1.800000E-01   1.800000E-01   1.800000E-01   1.800000E-01   1.800000E-01   1.800000E-01   1.800000E-01   1.800000E-01   1.800000E-01   1.800000E-01   1.800000E-01   1.800000E-01   1.800000E-01   1.800000E-01   1.800000E-01   1.800000E-01   1.800000E-01   1.800000E-01   1.800000E-01   1.800000E-01   1.800000E-01   1.800000E-01   1.800000E-01   1.800000E-01   1.800000E-01   1.800000E-01   1.800000E-01   1.800000E-01   1.800000E-01   1.800000E-01   1.800000E-01   1.800000E-01   1.800000E-01   1.800000E-01   1.800000E-01   1.800000E-01   1.800000E-01   1.800000E-01   1.800000E-01   1.800000E-01   1.800000E-01   1.800000E-01   1.800000E-01   1.800000E-01   1.800000E-01   1.800000E-01   1.800000E-01   1.800000E-01   1.800000E-01   1.800000E-01   1.800000E-01   1.800000E-01   1.800000E-01   1.800000E-01   1.800000E-01   1.800000E-01   1.800000E-01   1.800000E-01   1.800000E-01   1.800000E-01   1.800000E-01   1.800000E-01   1.800000E-01   1.800000E-01   1.800000E-01   1.800000E-01   1.800000E-01   1.800000E-01   1.800000E-01   1.800000E-01   1.800000E-01   1.800000E-01   1.800000E-01   1.800000E-01   1.800000E-01   1.800000E-01   1.800000E-01   1.800000E-01   1.800000E-01   1.800000E-01   1.800000E-01   1.800000E-01   1.800000E-01   1.800000E-01   1.800000E-01   1.800000E-01   1.800000E-01   1.800000E-01
   1.500000E-01   1.500000E-01   1.500000E-01   1.500000E-01   1.500000E-01   1.500000E-01   1.500000E-01   1.500000E-01   1.500000E-01   1.500000E-01   1.500000E-01   1.500000E-01   1.500000E-01   1.500000E-01   1.500000E-01   1.500000E-01   1.500000E-01   1.500000E-01   1.500000E-01   1.500000E-01   1.500000E-01   1.500000E-01   1.500000E-01   1.500000E-01   1.500000E-01   1.500000E-01   1.500000E-01   1.500000E-01   1.500000E-01   1.500000E-01   1.500000E-01   1.500000E-01   1.500000E-01   1.500000E-01   1.500000E-01   1.500000E-01   1.500000E-01   1.500000E-01   1.500000E-01   1.500000E-01   1.500000E-01   1.500000E-01   1.500000E-01   1.500000E-01   1.500000E-01   1.500000E-01   1.500000E-01   1.500000E-01   1.500000E-01   1.500000E-01   1.500000E-01   1.500000E-01   1.500000E-01   1.500000E-01   1.500000E-01   1.500000E-01   1.500000E-01   1.500000E-01   1.500000E-01   1.500000E-01   1.500000E-01   1.500000E-01   1.500000E-01   1.500000E-01   1.500000E-01   1.500000E-01   1.500000E-01   1.500000E-01   1.500000E-01   1.500000E-01   1.500000E-01   1.500000E-01   1.500000E-01   1.500000E-01   1.500000E-01   1.500000E-01   1.500000E-01   1.500000E-01   1.500000E-01   1.500000E-01   1.500000E-01   1.500000E-01   1.500000E-01   1.500000E-01   1.500000E-01   1.500000E-01   1.500000E-01   1.500000E-01   1.500000E-01   1.500000E-01   1.500000E-01   1.500000E-01   1.500000E-01   1.500000E-01   1.500000E-01   1.500000E-01   1.500000E-01   1.500000E-01   1.500000E-01
   4.000000E-02   4.000000E-02   4.000000E-02   4.000000E-02   4.000000E-02   4.000000E-02   4.000000E-02   4.000000E-02   4.000000E-02   4.000000E-02   4.000000E-02   4.000000E-02   4.000000E-02   4.000000E-02   4.000000E-02   4.000000E-02   4.000000E-02   4.000000E-02   4.000000E-02   4.000000E-02   4.000000E-02   4.000000E-02   4.000000E-02   4.000000E-02   4.000000E-02   4.000000E-02   4.000000E-02   4.000000E-02   4.000000E-02   4.000000E-02   4.000000E-02   4.000000E-02   4.000000E-02   4.000000E-02   4.000000E-02   4.000000E-02   4.000000E-02   4.000000E-02   4.000000E-02   4.000000E-02   4.000000E-02   4.000000E-02   4.000000E-02   4.000000E-02   4.000000E-02   4.000000E-02   4.000000E-02   4.000000E-02   4.000000E-02   4.000000E-02   4.000000E-02   4.000000E-02   4.000000E-02   4.000000E-02   4.000000E-02   4.000000E-02   4.000000E-02   4.000000E-02   4.000000E-02   4.000000E-02   4.000000E-02   4.000000E-02   4.000000E-02   4.000000E-02   4.000000E-02   4.000000E-02   4.000000E-02   4.000000E-02   4.000000E-02   4.000000E-02   4.000000E-02   4.000000E-02   4.000000E-02   4.000000E-02   4.000000E-02   4.000000E-02   4.000000E-02   4.000000E-02   4.000000E-02   4.000000E-02   4.000000E-02   4.000000E-02   4.000000E-02   4.000000E-02   4.000000E-02   4.000000E-02   4.000000E-02   4.000000E-02   4.000000E-02   4.000000E-02   4.000000E-02   4.000000E-02   4.000000E-02   4.000000E-02   4.000000E-02   4.000000E-02   4.000000E-02   4.000000E-02   4.000000E-02
   7.000000E-02   7.000000E-02   7.000000E-02   7.000000E-02   7.000000E-02   7.000000E-02   7.000000E-02   7.000000E-02   7.000000E-02   7.000000E-02   7.000000E-02   7.000000E-02   7.000000E-02   7.000000E-02   7.000000E-02   7.000000E-02   7.000000E-02   7.000000E-02   7.000000E-02   7.000000E-02   7.000000E-02   7.000000E-02   7.000000E-02   7.000000E-02   7.000000E-02   7.000000E-02   7.000000E-02   7.000000E-02   7.000000E-02   7.000000E-02   7.000000E-02   7.000000E-02   7.000000E-02   7.000000E-02   7.000000E-02   7.000000E-02   7.000000E-02   7.000000E-02   7.000000E-02   7.000000E-02   7.000000E-02   7.000000E-02   7.000000E-02   7.000000E-02   7.000000E-02   7.000000E-02   7.000000E-02   7.000000E-02   7.000000E-02   7.000000E-02   7.000000E-02   7.000000E-02   7.000000E-02   7.000000E-02   7.000000E-02   7.000000E-02   7.000000E-02   7.000000E-02   7.000000E-02   7.000000E-02   7.000000E-02   7.000000E-02   7.000000E-02   7.000000E-02   7.000000E-02   7.000000E-02   7.000000E-02   7.000000E-02   7.000000E-02   7.000000E-02   7.000000E-02   7.000000E-02   7.000000E-02   7.000000E-02   7.000000E-02   7.000000E-02   7.000000E-02   7.000000E-02   7.000000E-02   7.000000E-02   7.000000E-02   7.000000E-02   7.000000E-02   7.000000E-02   7.000000E-02   7.000000E-02   7.000000E-02   7.000000E-02   7.000000E-02   7.000000E-02   7.000000E-02   7.000000E-02   7.000000E-02   7.000000E-02   7.000000E-02   7.000000E-02   7.000000E-02   7.000000E-02   7.000000E-02
   5.000000E-02   5.000000E-02   5.000000E-02   5.000000E-02   5.000000E-02   5.000000E-02   5.000000E-02   5.000000E-02   5.000000E-02   5.000000E-02   5.000000E-02   5.000000E-02   5.000000E-02   5.000000E-02   5.000000E-02   5.000000E-02   5.000000E-02   5.000000E-02   5.000000E-02   5.000000E-02   5.000000E-02   5.000000E-02   5.000000E-02   5.000000E-02   5.000000E-02   5.000000E-02   5.000000E-02   5.000000E-02   5.000000E-02   5.000000E-02   5.000000E-02   5.000000E-02   5.000000E-02   5.000000E-02   5.000000E-02   5.000000E-02   5.000000E-02   5.000000E-02   5.000000E-02   5.000000E-02   5.000000E-02   5.000000E-02   5.000000E-02   5.000000E-02   5.000000E-02   5.000000E-02   5.000000E-02   5.000000E-02   5.000000E-02   5.000000E-02   5.000000E-02   5.000000E-02   5.000000E-02   5.000000E-02   5.000000E-02   5.000000E-02   5.000000E-02   5.000000E-02   5.000000E-02   5.000000E-02   5.000000E-02   5.000000E-02   5.000000E-02   5.000000E-02   5.000000E-02   5.000000E-02   5.000000E-02   5.000000E-02   5.000000E-02   5.000000E-02   5.000000E-02   5.000000E-02   5.000000E-02   5.000000E-02   5.000000E-02   5.000000E-02   5.000000E-02   5.000000E-02   5.000000E-02   5.000000E-02   5.000000E-02   5.000000E-02   5.000000E-02   5.000000E-02   5.000000E-02   5.000000E-02   5.000000E-02   5.000000E-02   5.000000E-02   5.000000E-02   5.000000E-02   5.000000E-02   5.000000E-02   5.000000E-02   5.000000E-02   5.000000E-02   5.000000E-02   5.000000E-02   5.000000E-02
  -1.200000E-01  -1.200000E-01  -1.200000E-01  -1.200000E-01  -1.200000E-01  -1.200000E-01  -1.200000E-01  -1.200000E-01  -1.200000E-01  -1.200000E-01  -1.200000E-01  -1.200000E-01  -1.200000E-01  -1.200000E-01  -1.200000E-01  -1.200000E-01  -1.200000E-01  -1.200000E-01  -1.200000E-01  -1.200000E-01  -1.200000E-01  -1.200000E-01  -1.200000E-01  -1.200000E-01  -1.200000E-01  -1.200000E-01  -1.200000E-01  -1.200000E-01  -1.200000E-01  -1.200000E-01  -1.200000E-01  -1.200000E-01  -1.200000E-01  -1.200000E-01  -1.200000E-01  -1.200000E-01  -1.200000E-01  -1.200000E-01  -1.200000E-01  -1.200000E-01  -1.200000E-01  -1.200000E-01  -1.200000E-01  -1.200000E-01  -1.200000E-01  -1.200000E-01  -1.200000E-01  -1.200000E-01  -1.200000E-01  -1.200000E-01  -1.200000E-01  -1.200000E-01  -1.200000E-01  -1.200000E-01  -1.200000E-01  -1.200000E-01  -1.200000E-01  -1.200000E-01  -1.200000E-01  -1.200000E-01  -1.200000E-01  -1.200000E-01  -1.200000E-01  -1.200000E-01  -1.200000E-01  -1.200000E-01  -1.200000E-01  -1.200000E-01  -1.200000E-01  -1.200000E-01  -1.200000E-01  -1.200000E-01  -1.200000E-01  -1.200000E-01  -1.200000E-01  -1.200000E-01  -1.200000E-01  -1.200000E-01  -1.200000E-01  -1.200000E-01  -1.200000E-01  -1.200000E-01  -1.200000E-01  -1.200000E-01  -1.200000E-01  -1.200000E-01  -1.200000E-01  -1.200000E-01  -1.200000E-01  -1.200000E-01  -1.200000E-01  -1.200000E-01  -1.200000E-01  -1.200000E-01  -1.200000E-01  -1.200000E-01  -1.200000E-01  -1.200000E-01  -1.200000E-01
  -4.000000E-02  -4.000000E-02  -4.000000E-02  -4.000000E-02  -4.000000E-02  -4.000000E-02  -4.000000E-02  -4.000000E-02  -4.000000E-02  -4.000000E-02  -4.000000E-02  -4.000000E-02  -4.000000E-02  -4.000000E-02  -4.000000E-02  -4.000000E-02  -4.000000E-02  -4.000000E-02  -4.000000E-02  -4.000000E-02  -4.000000E-02  -4.000000E-02  -4.000000E-02  -4.000000E-02  -4.000000E-02  -4.000000E-02  -4.000000E-02  -4.000000E-02  -4.000000E-02  -4.000000E-02  -4.000000E-02  -4.000000E-02  -4.000000E-02  -4.000000E-02  -4.000000E-02  -4.000000E-02  -4.000000E-02  -4.000000E-02  -4.000000E-02  -4.000000E-02  -4.000000E-02  -4.000000E-02  -4.000000E-02  -4.000000E-02  -4.000000E-02  -4.000000E-02  -4.000000E-02  -4.000000E-02  -4.000000E-02  -4.000000E-02  -4.000000E-02  -4.000000E-02  -4.000000E-02  -4.000000E-02  -4.000000E-02  -4.000000E-02  -4.000000E-02  -4.000000E-02  -4.000000E-02  -4.000000E-02  -4.000000E-02  -4.000000E-02  -4.000000E-02  -4.000000E-02  -4.000000E-02  -4.000000E-02  -4.000000E-02  -4.000000E-02  -4.000000E-02  -4.000000E-02  -4.000000E-02  -4.000000E-02  -4.000000E-02  -4.000000E-02  -4.000000E-02  -4.000000E-02  -4.000000E-02  -4.000000E-02  -4.000000E-02  -4.000000E-02  -4.000000E-02  -4.000000E-02  -4.000000E-02  -4.000000E-02  -4.000000E-02  -4.000000E-02  -4.000000E-02  -4.000000E-02  -4.000000E-02  -4.000000E-02  -4.000000E-02  -4.000000E-02  -4.000000E-02  -4.000000E-02  -4.000000E-02  -4.000000E-02  -4.000000E-02  -4.000000E-02  -4.000000E-02
   5.000000E-02   5.000000E-02   5.000000E-02   5.000000E-02   5.000000E-02   5.000000E-02   5.000000E-02   5.000000E-02   5.000000E-02   5.000000E-02   5.000000E-02   5.000000E-02   5.000000E-02   5.000000E-02   5.000000E-02   5.000000E-02   5.000000E-02   5.000000E-02   5.000000E-02   5.000000E-02   5.000000E-02   5.000000E-02   5.000000E-02   5.000000E-02   5.000000E-02   5.000000E-02   5.000000E-02   5.000000E-02   5.000000E-02   5.000000E-02   5.000000E-02   5.000000E-02   5.000000E-02   5.000000E-02   5.000000E-02   5.000000E-02   5.000000E-02   5.000000E-02   5.000000E-02   5.000000E-02   5.000000E-02   5.000000E-02   5.000000E-02   5.000000E-02   5.000000E-02   5.000000E-02   5.000000E-02   5.000000E-02   5.000000E-02   5.000000E-02   5.000000E-02   5.000000E-02   5.000000E-02   5.000000E-02   5.000000E-02   5.000000E-02   5.000000E-02   5.000000E-02   5.000000E-02   5.000000E-02   5.000000E-02   5.000000E-02   5.000000E-02   5.000000E-02   5.000000E-02   5.000000E-02   5.000000E-02   5.000000E-02   5.000000E-02   5.000000E-02   5.000000E-02   5.000000E-02   5.000000E-02   5.000000E-02   5.000000E-02   5.000000E-02   5.000000E-02   5.000000E-02   5.000000E-02   5.000000E-02   5.000000E-02   5.000000E-02   5.000000E-02   5.000000E-02   5.000000E-02   5.000000E-02   5.000000E-02   5.000000E-02   5.000000E-02   5.000000E-02   5.000000E-02   5.000000E-02   5.000000E-02   5.000000E-02   5.000000E-02   5.000000E-02   5.000000E-02   5.000000E-02   5.000000E-02
   7.000000E-02   7.000000E-02   7.000000E-02   7.000000E-02   7.000000E-02   7.000000E-02   7.000000E-02   7.000000E-02   7.000000E-02   7.000000E-02   7.000000E-02   7.000000E-02   7.000000E-02   7.000000E-02   7.000000E-02   7.000000E-02   7.000000E-02   7.000000E-02   7.000000E-02   7.000000E-02   7.000000E-02   7.000000E-02   7.000000E-02   7.000000E-02   7.000000E-02   7.000000E-02   7.000000E-02   7.000000E-02   7.000000E-02   7.000000E-02   7.000000E-02   7.000000E-02   7.000000E-02   7.000000E-02   7.000000E-02   7.000000E-02   7.000000E-02   7.000000E-02   7.000000E-02   7.000000E-02   7.000000E-02   7.000000E-02   7.000000E-02   7.000000E-02   7.000000E-02   7.000000E-02   7.000000E-02   7.000000E-02   7.000000E-02   7.000000E-02   7.000000E-02   7.000000E-02   7.000000E-02   7.000000E-02   7.000000E-02   7.000000E-02   7.000000E-02   7.000000E-02   7.000000E-02   7.000000E-02   7.000000E-02   7.000000E-02   7.000000E-02   7.000000E-02   7.000000E-02   7.000000E-02   7.000000E-02   7.000000E-02   7.000000E-02   7.000000E-02   7.000000E-02   7.000000E-02   7.000000E-02   7.000000E-02   7.000000E-02   7.000000E-02   7.000000E-02   7.000000E-02   7.000000E-02   7.000000E-02   7.000000E-02   7.000000E-02   7.000000E-02   7.000000E-02   7.000000E-02   7.000000E-02   7.000000E-02   7.000000E-02   7.000000E-02   7.000000E-02   7.000000E-02   7.000000E-02   7.000000E-02   7.000000E-02   7.000000E-02   7.000000E-02   7.000000E-02   7.000000E-02   7.000000E-02
  -1.200000E-01  -1.200000E-01  -1.200000E-01  -1.200000E-01  -1.200000E-01  -1.200000E-01  -1.200000E-01  -1.200000E-01  -1.200000E-01  -1.200000E-01  -1.200000E-01  -1.200000E-01  -1.200000E-01  -1.200000E-01  -1.200000E-01  -1.200000E-01  -1.200000E-01  -1.200000E-01  -1.200000E-01  -1.200000E-01  -1.200000E-01  -1.200000E-01  -1.200000E-01  -1.200000E-01  -1.200000E-01  -1.200000E-01  -1.200000E-01  -1.200000E-01  -1.200000E-01  -1.200000E-01  -1.200000E-01  -1.200000E-01  -1.200000E-01  -1.200000E-01  -1.200000E-01  -1.200000E-01  -1.200000E-01  -1.200000E-01  -1.200000E-01  -1.200000E-01  -1.200000E-01  -1.200000E-01  -1.200000E-01  -1.200000E-01  -1.200000E-01  -1.200000E-01  -1.200000E-01  -1.200000E-01  -1.200000E-01  -1.200000E-01  -1.200000E-01  -1.200000E-01  -1.200000E-01  -1.200000E-01  -1.200000E-01  -1.200000E-01  -1.200000E-01  -1.200000E-01  -1.200000E-01  -1.200000E-01  -1.200000E-01  -1.200000E-01  -1.200000E-01  -1.200000E-01  -1.200000E-01  -1.200000E-01  -1.200000E-01  -1.200000E-01  -1.200000E-01  -1.200000E-01  -1.200000E-01  -1.200000E-01  -1.200000E-01  -1.200000E-01  -1.200000E-01  -1.200000E-01  -1.200000E-01  -1.200000E-01  -1.200000E-01  -1.200000E-01  -1.200000E-01  -1.200000E-01  -1.200000E-01  -1.200000E-01  -1.200000E-01  -1.200000E-01  -1.200000E-01  -1.200000E-01  -1.200000E-01  -1.200000E-01  -1.200000E-01  -1.200000E-01  -1.200000E-01  -1.200000E-01  -1.200000E-01  -1.200000E-01  -1.200000E-01  -1.200000E-01  -1.200000E-01
   1.100000E-01   1.100000E-01   1.100000E-01   1.100000E-01   1.100000E-01   1.100000E-01   1.100000E-01   1.100000E-01   1.100000E-01   1.100000E-01   1.100000E-01   1.100000E-01   1.100000E-01   1.100000E-01   1.100000E-01   1.100000E-01   1.100000E-01   1.100000E-01   1.100000E-01   1.100000E-01   1.100000E-01   1.100000E-01   1.100000E-01   1.100000E-01   1.100000E-01   1.100000E-01   1.100000E-01   1.100000E-01   1.100000E-01   1.100000E-01   1.100000E-01   1.100000E-01   1.100000E-01   1.100000E-01   1.100000E-01   1.100000E-01   1.100000E-01   1.100000E-01   1.100000E-01   1.100000E-01   1.100000E-01   1.100000E-01   1.100000E-01   1.100000E-01   1.100000E-01   1.100000E-01   1.100000E-01   1.100000E-01   1.100000E-01   1.100000E-01   1.100000E-01   1.100000E-01   1.100000E-01   1.100000E-01   1.100000E-01   1.100000E-01   1.100000E-01   1.100000E-01   1.100000E-01   1.100000E-01   1.100000E-01   1.100000E-01   1.100000E-01   1.100000E-01   1.100000E-01   1.100000E-01   1.100000E-01   1.100000E-01   1.100000E-01   1.100000E-01   1.100000E-01   1.100000E-01   1.100000E-01   1.100000E-01   1.100000E-01   1.100000E-01   1.100000E-01   1.100000E-01   1.100000E-01   1.100000E-01   1.100000E-01   1.100000E-01   1.100000E-01   1.100000E-01   1.100000E-01   1.100000E-01   1.100000E-01   1.100000E-01   1.100000E-01   1.100000E-01   1.100000E-01   1.100000E-01   1.100000E-01   1.100000E-01   1.100000E-01   1.100000E-01   1.100000E-01   1.100000E-01   1.100000E-01
   1.900000E-01   1.900000E-01   1.900000E-01   1.900000E-01   1.900000E-01   1.900000E-01   1.900000E-01   1.900000E-01   1.900000E-01   1.900000E-01   1.900000E-01   1.900000E-01   1.900000E-01   1.900000E-01   1.900000E-01   1.900000E-01   1.900000E-01   1.900000E-01   1.900000E-01   1.900000E-01   1.900000E-01   1.900000E-01   1.900000E-01   1.900000E-01   1.900000E-01   1.900000E-01   1.900000E-01   1.900000E-01   1.900000E-01   1.900000E-01   1.900000E-01   1.900000E-01   1.900000E-01   1.900000E-01   1.900000E-01   1.900000E-01   1.900000E-01   1.900000E-01   1.900000E-01   1.900000E-01   1.900000E-01   1.900000E-01   1.900000E-01   1.900000E-01   1.900000E-01   1.900000E-01   1.900000E-01   1.900000E-01   1.900000E-01   1.900000E-01   1.900000E-01   1.900000E-01   1.900000E-01   1.900000E-01   1.900000E-01   1.900000E-01   1.900000E-01   1.900000E-01   1.900000E-01   1.900000E-01   1.900000E-01   1.900000E-01   1.900000E-01   1.900000E-01   1.900000E-01   1.900000E-01   1.900000E-01   1.900000E-01   1.900000E-01   1.900000E-01   1.900000E-01   1.900000E-01   1.900000E-01   1.900000E-01   1.900000E-01   1.900000E-01   1.900000E-01   1.900000E-01   1.900000E-01   1.900000E-01   1.900000E-01   1.900000E-01   1.900000E-01   1.900000E-01   1.900000E-01   1.900000E-01   1.900000E-01   1.900000E-01   1.900000E-01   1.900000E-01   1.900000E-01   1.900000E-01   1.900000E-01   1.900000E-01   1.900000E-01   1.900000E-01   1.900000E-01   1.900000E-01   1.900000E-01
  -1.000000E-01  -1.000000E-01  -1.000000E-01  -1.000000E-01  -1.000000E-01  -1.000000E-01  -1.000000E-01  -1.000000E-01  -1.000000E-01  -1.000000E-01  -1.000000E-01  -1.000000E-01  -1.000000E-01  -1.000000E-01  -1.000000E-01  -1.000000E-01  -1.000000E-01  -1.000000E-01  -1.000000E-01  -1.000000E-01  -1.000000E-01  -1.000000E-01  -1.000000E-01  -1.000000E-01  -1.000000E-01  -1.000000E-01  -1.000000E-01  -1.000000E-01  -1.000000E-01  -1.000000E-01  -1.000000E-01  -1.000000E-01  -1.000000E-01  -1.000000E-01  -1.000000E-01  -1.000000E-01  -1.000000E-01  -1.000000E-01  -1.000000E-01  -1.000000E-01  -1.000000E-01  -1.000000E-01  -1.000000E-01  -1.000000E-01  -1.000000E-01  -1.000000E-01  -1.000000E-01  -1.000000E-01  -1.000000E-01  -1.000000E-01  -1.000000E-01  -1.000000E-01  -1.000000E-01  -1.000000E-01  -1.000000E-01  -1.000000E-01  -1.000000E-01  -1.000000E-01  -1.000000E-01  -1.000000E-01  -1.000000E-01  -1.000000E-01  -1.000000E-01  -1.000000E-01  -1.000000E-01  -1.000000E-01  -1.000000E-01  -1.000000E-01  -1.000000E-01  -1.000000E-01  -1.000000E-01  -1.000000E-01  -1.000000E-01  -1.000000E-01  -1.000000E-01  -1.000000E-01  -1.000000E-01  -1.000000E-01  -1.000000E-01  -1.000000E-01  -1.000000E-01  -1.000000E-01  -1.000000E-01  -1.000000E-01  -1.000000E-01  -1.000000E-01  -1.000000E-01  -1.000000E-01  -1.000000E-01  -1.000000E-01  -1.000000E-01  -1.000000E-01  -1.000000E-01  -1.000000E-01  -1.000000E-01  -1.000000E-01  -1.000000E-01  -1.000000E-01  -1.000000E-01
   7.000000E-02   7.000000E-02   7.000000E-02   7.000000E-02   7.000000E-02   7.000000E-02   7.000000E-02   7.000000E-02   7.000000E-02   7.000000E-02   7.000000E-02   7.000000E-02   7.000000E-02   7.000000E-02   7.000000E-02   7.000000E-02   7.000000E-02   7.000000E-02   7.000000E-02   7.000000E-02   7.000000E-02   7.000000E-02   7.000000E-02   7.000000E-02   7.000000E-02   7.000000E-02   7.000000E-02   7.000000E-02   7.000000E-02   7.000000E-02   7.000000E-02   7.000000E-02   7.000000E-02   7.000000E-02   7.000000E-02   7.000000E-02   7.000000E-02   7.000000E-02   7.000000E-02   7.000000E-02   7.000000E-02   7.000000E-02   7.000000E-02   7.000000E-02   7.000000E-02   7.000000E-02   7.000000E-02   7.000000E-02   7.000000E-02   7.000000E-02   7.000000E-02   7.000000E-02   7.000000E-02   7.000000E-02   7.000000E-02   7.000000E-02   7.000000E-02   7.000000E-02   7.000000E-02   7.000000E-02   7.000000E-02   7.000000E-02   7.000000E-02   7.000000E-02   7.000000E-02   7.000000E-02   7.000000E-02   7.000000E-02   7.000000E-02   7.000000E-02   7.000000E-02   7.000000E-02   7.000000E-02   7.000000E-02   7.000000E-02   7.000000E-02   7.000000E-02   7.000000E-02   7.000000E-02   7.000000E-02   7.000000E-02   7.000000E-02   7.000000E-02   7.000000E-02   7.000000E-02   7.000000E-02   7.000000E-02   7.000000E-02   7.000000E-02   7.000000E-02   7.000000E-02   7.000000E-02   7.000000E-02   7.000000E-02   7.000000E-02   7.000000E-02   7.000000E-02   7.000000E-02   7.000000E-02