# SMS package for  MODFLOW-2005, generated by Flopy.
0.001 0.0001 200 200 2 0 2
bcgs 3 0 0 0.01 1.0
