# LPF package for  MODFLOW-2005, generated by Flopy.
        53    -1E+30         0  STORAGECOEFFICIENT 
         0         0
         0         0
   1.000000E-20   1.000000E-20
         0         0
         0         0
INTERNAL               1  (99E15.6) -1 #hk layer 1                    
   4.500000E-01   4.500000E-01   4.500000E-01   4.500000E-01   4.500000E-01   4.500000E-01   4.500000E-01   4.500000E-01   4.500000E-01   4.500000E-01   4.500000E-01   4.500000E-01   4.500000E-01   4.500000E-01   4.500000E-01   4.500000E-01   4.500000E-01   4.500000E-01   4.500000E-01   4.500000E-01   4.500000E-01   4.500000E-01   4.500000E-01   4.500000E-01   4.500000E-01   4.500000E-01   4.500000E-01   4.500000E-01   4.500000E-01   4.500000E-01   4.500000E-01   4.500000E-01   4.500000E-01   4.500000E-01   4.500000E-01   4.500000E-01   4.500000E-01   4.500000E-01   4.500000E-01   4.500000E-01   4.500000E-01   4.500000E-01   4.500000E-01   4.500000E-01   4.500000E-01   4.500000E-01   4.500000E-01   4.500000E-01   4.500000E-01   4.500000E-01   4.500000E-01   4.500000E-01   4.500000E-01   4.500000E-01   4.500000E-01   4.500000E-01   4.500000E-01   4.500000E-01   4.500000E-01   4.500000E-01   4.500000E-01   4.500000E-01   4.500000E-01   4.500000E-01   4.500000E-01   4.500000E-01   4.500000E-01   4.500000E-01   4.500000E-01   4.500000E-01   4.500000E-01   4.500000E-01   4.500000E-01   4.500000E-01   4.500000E-01   4.500000E-01   4.500000E-01   4.500000E-01   4.500000E-01   4.500000E-01   4.500000E-01   4.500000E-01   4.500000E-01   4.500000E-01   4.500000E-01   4.500000E-01   4.500000E-01   4.500000E-01   4.500000E-01   4.500000E-01   4.500000E-01   4.500000E-01   4.500000E-01   4.500000E-01   4.500000E-01   4.500000E-01   4.500000E-01   4.500000E-01   4.500000E-01
   4.500000E-01   4.500000E-01   4.500000E-01   4.500000E-01   4.500000E-01   4.500000E-01   4.500000E-01   4.500000E-01   4.500000E-01   4.500000E-01   4.500000E-01   4.500000E-01   4.500000E-01   4.500000E-01   4.500000E-01   4.500000E-01   4.500000E-01   4.500000E-01   4.500000E-01   4.500000E-01   4.500000E-01   4.500000E-01   4.500000E-01   4.500000E-01   4.500000E-01   4.500000E-01   4.500000E-01   4.500000E-01   4.500000E-01   4.500000E-01   4.500000E-01   4.500000E-01   4.500000E-01   4.500000E-01   4.500000E-01   4.500000E-01   4.500000E-01   4.500000E-01   4.500000E-01   4.500000E-01   4.500000E-01   4.500000E-01   4.500000E-01   4.500000E-01   4.500000E-01   4.500000E-01   4.500000E-01   4.500000E-01   4.500000E-01   4.500000E-01   4.500000E-01   4.500000E-01   4.500000E-01   4.500000E-01   4.500000E-01   4.500000E-01   4.500000E-01   4.500000E-01   4.500000E-01   4.500000E-01   4.500000E-01   4.500000E-01   4.500000E-01   4.500000E-01   4.500000E-01   4.500000E-01   4.500000E-01   4.500000E-01   4.500000E-01   4.500000E-01   4.500000E-01   4.500000E-01   4.500000E-01   4.500000E-01   4.500000E-01   4.500000E-01   4.500000E-01   4.500000E-01   4.500000E-01   4.500000E-01   4.500000E-01   4.500000E-01   4.500000E-01   4.500000E-01   4.500000E-01   4.500000E-01   4.500000E-01   4.500000E-01   4.500000E-01   4.500000E-01   4.500000E-01   4.500000E-01   4.500000E-01   4.500000E-01   4.500000E-01   4.500000E-01   4.500000E-01   4.500000E-01   4.500000E-01
   3.000000E-01   3.000000E-01   3.000000E-01   3.000000E-01   3.000000E-01   3.000000E-01   3.000000E-01   3.000000E-01   3.000000E-01   3.000000E-01   3.000000E-01   3.000000E-01   3.000000E-01   3.000000E-01   3.000000E-01   3.000000E-01   3.000000E-01   3.000000E-01   3.000000E-01   3.000000E-01   3.000000E-01   3.000000E-01   3.000000E-01   3.000000E-01   3.000000E-01   3.000000E-01   3.000000E-01   3.000000E-01   3.000000E-01   3.000000E-01   3.000000E-01   3.000000E-01   3.000000E-01   3.000000E-01   3.000000E-01   3.000000E-01   3.000000E-01   3.000000E-01   3.000000E-01   3.000000E-01   3.000000E-01   3.000000E-01   3.000000E-01   3.000000E-01   3.000000E-01   3.000000E-01   3.000000E-01   3.000000E-01   3.000000E-01   3.000000E-01   3.000000E-01   3.000000E-01   3.000000E-01   3.000000E-01   3.000000E-01   3.000000E-01   3.000000E-01   3.000000E-01   3.000000E-01   3.000000E-01   3.000000E-01   3.000000E-01   3.000000E-01   3.000000E-01   3.000000E-01   3.000000E-01   3.000000E-01   3.000000E-01   3.000000E-01   3.000000E-01   3.000000E-01   3.000000E-01   3.000000E-01   3.000000E-01   3.000000E-01   3.000000E-01   3.000000E-01   3.000000E-01   3.000000E-01   3.000000E-01   3.000000E-01   3.000000E-01   3.000000E-01   3.000000E-01   3.000000E-01   3.000000E-01   3.000000E-01   3.000000E-01   3.000000E-01   3.000000E-01   3.000000E-01   3.000000E-01   3.000000E-01   3.000000E-01   3.000000E-01   3.000000E-01   3.000000E-01   3.000000E-01   3.000000E-01
   6.000000E-01   6.000000E-01   6.000000E-01   6.000000E-01   6.000000E-01   6.000000E-01   6.000000E-01   6.000000E-01   6.000000E-01   6.000000E-01   6.000000E-01   6.000000E-01   6.000000E-01   6.000000E-01   6.000000E-01   6.000000E-01   6.000000E-01   6.000000E-01   6.000000E-01   6.000000E-01   6.000000E-01   6.000000E-01   6.000000E-01   6.000000E-01   6.000000E-01   6.000000E-01   6.000000E-01   6.000000E-01   6.000000E-01   6.000000E-01   6.000000E-01   6.000000E-01   6.000000E-01   6.000000E-01   6.000000E-01   6.000000E-01   6.000000E-01   6.000000E-01   6.000000E-01   6.000000E-01   6.000000E-01   6.000000E-01   6.000000E-01   6.000000E-01   6.000000E-01   6.000000E-01   6.000000E-01   6.000000E-01   6.000000E-01   6.000000E-01   6.000000E-01   6.000000E-01   6.000000E-01   6.000000E-01   6.000000E-01   6.000000E-01   6.000000E-01   6.000000E-01   6.000000E-01   6.000000E-01   6.000000E-01   6.000000E-01   6.000000E-01   6.000000E-01   6.000000E-01   6.000000E-01   6.000000E-01   6.000000E-01   6.000000E-01   6.000000E-01   6.000000E-01   6.000000E-01   6.000000E-01   6.000000E-01   6.000000E-01   6.000000E-01   6.000000E-01   6.000000E-01   6.000000E-01   6.000000E-01   6.000000E-01   6.000000E-01   6.000000E-01   6.000000E-01   6.000000E-01   6.000000E-01   6.000000E-01   6.000000E-01   6.000000E-01   6.000000E-01   6.000000E-01   6.000000E-01   6.000000E-01   6.000000E-01   6.000000E-01   6.000000E-01   6.000000E-01   6.000000E-01   6.000000E-01
   6.000000E-01   6.000000E-01   6.000000E-01   6.000000E-01   6.000000E-01   6.000000E-01   6.000000E-01   6.000000E-01   6.000000E-01   6.000000E-01   6.000000E-01   6.000000E-01   6.000000E-01   6.000000E-01   6.000000E-01   6.000000E-01   6.000000E-01   6.000000E-01   6.000000E-01   6.000000E-01   6.000000E-01   6.000000E-01   6.000000E-01   6.000000E-01   6.000000E-01   6.000000E-01   6.000000E-01   6.000000E-01   6.000000E-01   6.000000E-01   6.000000E-01   6.000000E-01   6.000000E-01   6.000000E-01   6.000000E-01   6.000000E-01   6.000000E-01   6.000000E-01   6.000000E-01   6.000000E-01   6.000000E-01   6.000000E-01   6.000000E-01   6.000000E-01   6.000000E-01   6.000000E-01   6.000000E-01   6.000000E-01   6.000000E-01   6.000000E-01   6.000000E-01   6.000000E-01   6.000000E-01   6.000000E-01   6.000000E-01   6.000000E-01   6.000000E-01   6.000000E-01   6.000000E-01   6.000000E-01   6.000000E-01   6.000000E-01   6.000000E-01   6.000000E-01   6.000000E-01   6.000000E-01   6.000000E-01   6.000000E-01   6.000000E-01   6.000000E-01   6.000000E-01   6.000000E-01   6.000000E-01   6.000000E-01   6.000000E-01   6.000000E-01   6.000000E-01   6.000000E-01   6.000000E-01   6.000000E-01   6.000000E-01   6.000000E-01   6.000000E-01   6.000000E-01   6.000000E-01   6.000000E-01   6.000000E-01   6.000000E-01   6.000000E-01   6.000000E-01   6.000000E-01   6.000000E-01   6.000000E-01   6.000000E-01   6.000000E-01   6.000000E-01   6.000000E-01   6.000000E-01   6.000000E-01
   6.000000E-01   6.000000E-01   6.000000E-01   6.000000E-01   6.000000E-01   6.000000E-01   6.000000E-01   6.000000E-01   6.000000E-01   6.000000E-01   6.000000E-01   6.000000E-01   6.000000E-01   6.000000E-01   6.000000E-01   6.000000E-01   6.000000E-01   6.000000E-01   6.000000E-01   6.000000E-01   6.000000E-01   6.000000E-01   6.000000E-01   6.000000E-01   6.000000E-01   6.000000E-01   6.000000E-01   6.000000E-01   6.000000E-01   6.000000E-01   6.000000E-01   6.000000E-01   6.000000E-01   6.000000E-01   6.000000E-01   6.000000E-01   6.000000E-01   6.000000E-01   6.000000E-01   6.000000E-01   6.000000E-01   6.000000E-01   6.000000E-01   6.000000E-01   6.000000E-01   6.000000E-01   6.000000E-01   6.000000E-01   6.000000E-01   6.000000E-01   6.000000E-01   6.000000E-01   6.000000E-01   6.000000E-01   6.000000E-01   6.000000E-01   6.000000E-01   6.000000E-01   6.000000E-01   6.000000E-01   6.000000E-01   6.000000E-01   6.000000E-01   6.000000E-01   6.000000E-01   6.000000E-01   6.000000E-01   6.000000E-01   6.000000E-01   6.000000E-01   6.000000E-01   6.000000E-01   6.000000E-01   6.000000E-01   6.000000E-01   6.000000E-01   6.000000E-01   6.000000E-01   6.000000E-01   6.000000E-01   6.000000E-01   6.000000E-01   6.000000E-01   6.000000E-01   6.000000E-01   6.000000E-01   6.000000E-01   6.000000E-01   6.000000E-01   6.000000E-01   6.000000E-01   6.000000E-01   6.000000E-01   6.000000E-01   6.000000E-01   6.000000E-01   6.000000E-01   6.000000E-01   6.000000E-01
   6.000000E-01   6.000000E-01   6.000000E-01   6.000000E-01   6.000000E-01   6.000000E-01   6.000000E-01   6.000000E-01   6.000000E-01   6.000000E-01   6.000000E-01   6.000000E-01   6.000000E-01   6.000000E-01   6.000000E-01   6.000000E-01   6.000000E-01   6.000000E-01   6.000000E-01   6.000000E-01   6.000000E-01   6.000000E-01   6.000000E-01   6.000000E-01   6.000000E-01   6.000000E-01   6.000000E-01   6.000000E-01   6.000000E-01   6.000000E-01   6.000000E-01   6.000000E-01   6.000000E-01   6.000000E-01   6.000000E-01   6.000000E-01   6.000000E-01   6.000000E-01   6.000000E-01   6.000000E-01   6.000000E-01   6.000000E-01   6.000000E-01   6.000000E-01   6.000000E-01   6.000000E-01   6.000000E-01   6.000000E-01   6.000000E-01   6.000000E-01   6.000000E-01   6.000000E-01   6.000000E-01   6.000000E-01   6.000000E-01   6.000000E-01   6.000000E-01   6.000000E-01   6.000000E-01   6.000000E-01   6.000000E-01   6.000000E-01   6.000000E-01   6.000000E-01   6.000000E-01   6.000000E-01   6.000000E-01   6.000000E-01   6.000000E-01   6.000000E-01   6.000000E-01   6.000000E-01   6.000000E-01   6.000000E-01   6.000000E-01   6.000000E-01   6.000000E-01   6.000000E-01   6.000000E-01   6.000000E-01   6.000000E-01   6.000000E-01   6.000000E-01   6.000000E-01   6.000000E-01   6.000000E-01   6.000000E-01   6.000000E-01   6.000000E-01   6.000000E-01   6.000000E-01   6.000000E-01   6.000000E-01   6.000000E-01   6.000000E-01   6.000000E-01   6.000000E-01   6.000000E-01   6.000000E-01
   4.500000E-01   4.500000E-01   4.500000E-01   4.500000E-01   4.500000E-01   4.500000E-01   4.500000E-01   4.500000E-01   4.500000E-01   4.500000E-01   4.500000E-01   4.500000E-01   4.500000E-01   4.500000E-01   4.500000E-01   4.500000E-01   4.500000E-01   4.500000E-01   4.500000E-01   4.500000E-01   4.500000E-01   4.500000E-01   4.500000E-01   4.500000E-01   4.500000E-01   4.500000E-01   4.500000E-01   4.500000E-01   4.500000E-01   4.500000E-01   4.500000E-01   4.500000E-01   4.500000E-01   4.500000E-01   4.500000E-01   4.500000E-01   4.500000E-01   4.500000E-01   4.500000E-01   4.500000E-01   4.500000E-01   4.500000E-01   4.500000E-01   4.500000E-01   4.500000E-01   4.500000E-01   4.500000E-01   4.500000E-01   4.500000E-01   4.500000E-01   4.500000E-01   4.500000E-01   4.500000E-01   4.500000E-01   4.500000E-01   4.500000E-01   4.500000E-01   4.500000E-01   4.500000E-01   4.500000E-01   4.500000E-01   4.500000E-01   4.500000E-01   4.500000E-01   4.500000E-01   4.500000E-01   4.500000E-01   4.500000E-01   4.500000E-01   4.500000E-01   4.500000E-01   4.500000E-01   4.500000E-01   4.500000E-01   4.500000E-01   4.500000E-01   4.500000E-01   4.500000E-01   4.500000E-01   4.500000E-01   4.500000E-01   4.500000E-01   4.500000E-01   4.500000E-01   4.500000E-01   4.500000E-01   4.500000E-01   4.500000E-01   4.500000E-01   4.500000E-01   4.500000E-01   4.500000E-01   4.500000E-01   4.500000E-01   4.500000E-01   4.500000E-01   4.500000E-01   4.500000E-01   4.500000E-01
   6.000000E-01   6.000000E-01   6.000000E-01   6.000000E-01   6.000000E-01   6.000000E-01   6.000000E-01   6.000000E-01   6.000000E-01   6.000000E-01   6.000000E-01   6.000000E-01   6.000000E-01   6.000000E-01   6.000000E-01   6.000000E-01   6.000000E-01   6.000000E-01   6.000000E-01   6.000000E-01   6.000000E-01   6.000000E-01   6.000000E-01   6.000000E-01   6.000000E-01   6.000000E-01   6.000000E-01   6.000000E-01   6.000000E-01   6.000000E-01   6.000000E-01   6.000000E-01   6.000000E-01   6.000000E-01   6.000000E-01   6.000000E-01   6.000000E-01   6.000000E-01   6.000000E-01   6.000000E-01   6.000000E-01   6.000000E-01   6.000000E-01   6.000000E-01   6.000000E-01   6.000000E-01   6.000000E-01   6.000000E-01   6.000000E-01   6.000000E-01   6.000000E-01   6.000000E-01   6.000000E-01   6.000000E-01   6.000000E-01   6.000000E-01   6.000000E-01   6.000000E-01   6.000000E-01   6.000000E-01   6.000000E-01   6.000000E-01   6.000000E-01   6.000000E-01   6.000000E-01   6.000000E-01   6.000000E-01   6.000000E-01   6.000000E-01   6.000000E-01   6.000000E-01   6.000000E-01   6.000000E-01   6.000000E-01   6.000000E-01   6.000000E-01   6.000000E-01   6.000000E-01   6.000000E-01   6.000000E-01   6.000000E-01   6.000000E-01   6.000000E-01   6.000000E-01   6.000000E-01   6.000000E-01   6.000000E-01   6.000000E-01   6.000000E-01   6.000000E-01   6.000000E-01   6.000000E-01   6.000000E-01   6.000000E-01   6.000000E-01   6.000000E-01   6.000000E-01   6.000000E-01   6.000000E-01
   4.500000E-01   4.500000E-01   4.500000E-01   4.500000E-01   4.500000E-01   4.500000E-01   4.500000E-01   4.500000E-01   4.500000E-01   4.500000E-01   4.500000E-01   4.500000E-01   4.500000E-01   4.500000E-01   4.500000E-01   4.500000E-01   4.500000E-01   4.500000E-01   4.500000E-01   4.500000E-01   4.500000E-01   4.500000E-01   4.500000E-01   4.500000E-01   4.500000E-01   4.500000E-01   4.500000E-01   4.500000E-01   4.500000E-01   4.500000E-01   4.500000E-01   4.500000E-01   4.500000E-01   4.500000E-01   4.500000E-01   4.500000E-01   4.500000E-01   4.500000E-01   4.500000E-01   4.500000E-01   4.500000E-01   4.500000E-01   4.500000E-01   4.500000E-01   4.500000E-01   4.500000E-01   4.500000E-01   4.500000E-01   4.500000E-01   4.500000E-01   4.500000E-01   4.500000E-01   4.500000E-01   4.500000E-01   4.500000E-01   4.500000E-01   4.500000E-01   4.500000E-01   4.500000E-01   4.500000E-01   4.500000E-01   4.500000E-01   4.500000E-01   4.500000E-01   4.500000E-01   4.500000E-01   4.500000E-01   4.500000E-01   4.500000E-01   4.500000E-01   4.500000E-01   4.500000E-01   4.500000E-01   4.500000E-01   4.500000E-01   4.500000E-01   4.500000E-01   4.500000E-01   4.500000E-01   4.500000E-01   4.500000E-01   4.500000E-01   4.500000E-01   4.500000E-01   4.500000E-01   4.500000E-01   4.500000E-01   4.500000E-01   4.500000E-01   4.500000E-01   4.500000E-01   4.500000E-01   4.500000E-01   4.500000E-01   4.500000E-01   4.500000E-01   4.500000E-01   4.500000E-01   4.500000E-01
   3.000000E-01   3.000000E-01   3.000000E-01   3.000000E-01   3.000000E-01   3.000000E-01   3.000000E-01   3.000000E-01   3.000000E-01   3.000000E-01   3.000000E-01   3.000000E-01   3.000000E-01   3.000000E-01   3.000000E-01   3.000000E-01   3.000000E-01   3.000000E-01   3.000000E-01   3.000000E-01   3.000000E-01   3.000000E-01   3.000000E-01   3.000000E-01   3.000000E-01   3.000000E-01   3.000000E-01   3.000000E-01   3.000000E-01   3.000000E-01   3.000000E-01   3.000000E-01   3.000000E-01   3.000000E-01   3.000000E-01   3.000000E-01   3.000000E-01   3.000000E-01   3.000000E-01   3.000000E-01   3.000000E-01   3.000000E-01   3.000000E-01   3.000000E-01   3.000000E-01   3.000000E-01   3.000000E-01   3.000000E-01   3.000000E-01   3.000000E-01   3.000000E-01   3.000000E-01   3.000000E-01   3.000000E-01   3.000000E-01   3.000000E-01   3.000000E-01   3.000000E-01   3.000000E-01   3.000000E-01   3.000000E-01   3.000000E-01   3.000000E-01   3.000000E-01   3.000000E-01   3.000000E-01   3.000000E-01   3.000000E-01   3.000000E-01   3.000000E-01   3.000000E-01   3.000000E-01   3.000000E-01   3.000000E-01   3.000000E-01   3.000000E-01   3.000000E-01   3.000000E-01   3.000000E-01   3.000000E-01   3.000000E-01   3.000000E-01   3.000000E-01   3.000000E-01   3.000000E-01   3.000000E-01   3.000000E-01   3.000000E-01   3.000000E-01   3.000000E-01   3.000000E-01   3.000000E-01   3.000000E-01   3.000000E-01   3.000000E-01   3.000000E-01   3.000000E-01   3.000000E-01   3.000000E-01
   4.500000E-01   4.500000E-01   4.500000E-01   4.500000E-01   4.500000E-01   4.500000E-01   4.500000E-01   4.500000E-01   4.500000E-01   4.500000E-01   4.500000E-01   4.500000E-01   4.500000E-01   4.500000E-01   4.500000E-01   4.500000E-01   4.500000E-01   4.500000E-01   4.500000E-01   4.500000E-01   4.500000E-01   4.500000E-01   4.500000E-01   4.500000E-01   4.500000E-01   4.500000E-01   4.500000E-01   4.500000E-01   4.500000E-01   4.500000E-01   4.500000E-01   4.500000E-01   4.500000E-01   4.500000E-01   4.500000E-01   4.500000E-01   4.500000E-01   4.500000E-01   4.500000E-01   4.500000E-01   4.500000E-01   4.500000E-01   4.500000E-01   4.500000E-01   4.500000E-01   4.500000E-01   4.500000E-01   4.500000E-01   4.500000E-01   4.500000E-01   4.500000E-01   4.500000E-01   4.500000E-01   4.500000E-01   4.500000E-01   4.500000E-01   4.500000E-01   4.500000E-01   4.500000E-01   4.500000E-01   4.500000E-01   4.500000E-01   4.500000E-01   4.500000E-01   4.500000E-01   4.500000E-01   4.500000E-01   4.500000E-01   4.500000E-01   4.500000E-01   4.500000E-01   4.500000E-01   4.500000E-01   4.500000E-01   4.500000E-01   4.500000E-01   4.500000E-01   4.500000E-01   4.500000E-01   4.500000E-01   4.500000E-01   4.500000E-01   4.500000E-01   4.500000E-01   4.500000E-01   4.500000E-01   4.500000E-01   4.500000E-01   4.500000E-01   4.500000E-01   4.500000E-01   4.500000E-01   4.500000E-01   4.500000E-01   4.500000E-01   4.500000E-01   4.500000E-01   4.500000E-01   4.500000E-01
   6.000000E-01   6.000000E-01   6.000000E-01   6.000000E-01   6.000000E-01   6.000000E-01   6.000000E-01   6.000000E-01   6.000000E-01   6.000000E-01   6.000000E-01   6.000000E-01   6.000000E-01   6.000000E-01   6.000000E-01   6.000000E-01   6.000000E-01   6.000000E-01   6.000000E-01   6.000000E-01   6.000000E-01   6.000000E-01   6.000000E-01   6.000000E-01   6.000000E-01   6.000000E-01   6.000000E-01   6.000000E-01   6.000000E-01   6.000000E-01   6.000000E-01   6.000000E-01   6.000000E-01   6.000000E-01   6.000000E-01   6.000000E-01   6.000000E-01   6.000000E-01   6.000000E-01   6.000000E-01   6.000000E-01   6.000000E-01   6.000000E-01   6.000000E-01   6.000000E-01   6.000000E-01   6.000000E-01   6.000000E-01   6.000000E-01   6.000000E-01   6.000000E-01   6.000000E-01   6.000000E-01   6.000000E-01   6.000000E-01   6.000000E-01   6.000000E-01   6.000000E-01   6.000000E-01   6.000000E-01   6.000000E-01   6.000000E-01   6.000000E-01   6.000000E-01   6.000000E-01   6.000000E-01   6.000000E-01   6.000000E-01   6.000000E-01   6.000000E-01   6.000000E-01   6.000000E-01   6.000000E-01   6.000000E-01   6.000000E-01   6.000000E-01   6.000000E-01   6.000000E-01   6.000000E-01   6.000000E-01   6.000000E-01   6.000000E-01   6.000000E-01   6.000000E-01   6.000000E-01   6.000000E-01   6.000000E-01   6.000000E-01   6.000000E-01   6.000000E-01   6.000000E-01   6.000000E-01   6.000000E-01   6.000000E-01   6.000000E-01   6.000000E-01   6.000000E-01   6.000000E-01   6.000000E-01
   4.500000E-01   4.500000E-01   4.500000E-01   4.500000E-01   4.500000E-01   4.500000E-01   4.500000E-01   4.500000E-01   4.500000E-01   4.500000E-01   4.500000E-01   4.500000E-01   4.500000E-01   4.500000E-01   4.500000E-01   4.500000E-01   4.500000E-01   4.500000E-01   4.500000E-01   4.500000E-01   4.500000E-01   4.500000E-01   4.500000E-01   4.500000E-01   4.500000E-01   4.500000E-01   4.500000E-01   4.500000E-01   4.500000E-01   4.500000E-01   4.500000E-01   4.500000E-01   4.500000E-01   4.500000E-01   4.500000E-01   4.500000E-01   4.500000E-01   4.500000E-01   4.500000E-01   4.500000E-01   4.500000E-01   4.500000E-01   4.500000E-01   4.500000E-01   4.500000E-01   4.500000E-01   4.500000E-01   4.500000E-01   4.500000E-01   4.500000E-01   4.500000E-01   4.500000E-01   4.500000E-01   4.500000E-01   4.500000E-01   4.500000E-01   4.500000E-01   4.500000E-01   4.500000E-01   4.500000E-01   4.500000E-01   4.500000E-01   4.500000E-01   4.500000E-01   4.500000E-01   4.500000E-01   4.500000E-01   4.500000E-01   4.500000E-01   4.500000E-01   4.500000E-01   4.500000E-01   4.500000E-01   4.500000E-01   4.500000E-01   4.500000E-01   4.500000E-01   4.500000E-01   4.500000E-01   4.500000E-01   4.500000E-01   4.500000E-01   4.500000E-01   4.500000E-01   4.500000E-01   4.500000E-01   4.500000E-01   4.500000E-01   4.500000E-01   4.500000E-01   4.500000E-01   4.500000E-01   4.500000E-01   4.500000E-01   4.500000E-01   4.500000E-01   4.500000E-01   4.500000E-01   4.500000E-01
   4.500000E-01   4.500000E-01   4.500000E-01   4.500000E-01   4.500000E-01   4.500000E-01   4.500000E-01   4.500000E-01   4.500000E-01   4.500000E-01   4.500000E-01   4.500000E-01   4.500000E-01   4.500000E-01   4.500000E-01   4.500000E-01   4.500000E-01   4.500000E-01   4.500000E-01   4.500000E-01   4.500000E-01   4.500000E-01   4.500000E-01   4.500000E-01   4.500000E-01   4.500000E-01   4.500000E-01   4.500000E-01   4.500000E-01   4.500000E-01   4.500000E-01   4.500000E-01   4.500000E-01   4.500000E-01   4.500000E-01   4.500000E-01   4.500000E-01   4.500000E-01   4.500000E-01   4.500000E-01   4.500000E-01   4.500000E-01   4.500000E-01   4.500000E-01   4.500000E-01   4.500000E-01   4.500000E-01   4.500000E-01   4.500000E-01   4.500000E-01   4.500000E-01   4.500000E-01   4.500000E-01   4.500000E-01   4.500000E-01   4.500000E-01   4.500000E-01   4.500000E-01   4.500000E-01   4.500000E-01   4.500000E-01   4.500000E-01   4.500000E-01   4.500000E-01   4.500000E-01   4.500000E-01   4.500000E-01   4.500000E-01   4.500000E-01   4.500000E-01   4.500000E-01   4.500000E-01   4.500000E-01   4.500000E-01   4.500000E-01   4.500000E-01   4.500000E-01   4.500000E-01   4.500000E-01   4.500000E-01   4.500000E-01   4.500000E-01   4.500000E-01   4.500000E-01   4.500000E-01   4.500000E-01   4.500000E-01   4.500000E-01   4.500000E-01   4.500000E-01   4.500000E-01   4.500000E-01   4.500000E-01   4.500000E-01   4.500000E-01   4.500000E-01   4.500000E-01   4.500000E-01   4.500000E-01
   4.500000E-01   4.500000E-01   4.500000E-01   4.500000E-01   4.500000E-01   4.500000E-01   4.500000E-01   4.500000E-01   4.500000E-01   4.500000E-01   4.500000E-01   4.500000E-01   4.500000E-01   4.500000E-01   4.500000E-01   4.500000E-01   4.500000E-01   4.500000E-01   4.500000E-01   4.500000E-01   4.500000E-01   4.500000E-01   4.500000E-01   4.500000E-01   4.500000E-01   4.500000E-01   4.500000E-01   4.500000E-01   4.500000E-01   4.500000E-01   4.500000E-01   4.500000E-01   4.500000E-01   4.500000E-01   4.500000E-01   4.500000E-01   4.500000E-01   4.500000E-01   4.500000E-01   4.500000E-01   4.500000E-01   4.500000E-01   4.500000E-01   4.500000E-01   4.500000E-01   4.500000E-01   4.500000E-01   4.500000E-01   4.500000E-01   4.500000E-01   4.500000E-01   4.500000E-01   4.500000E-01   4.500000E-01   4.500000E-01   4.500000E-01   4.500000E-01   4.500000E-01   4.500000E-01   4.500000E-01   4.500000E-01   4.500000E-01   4.500000E-01   4.500000E-01   4.500000E-01   4.500000E-01   4.500000E-01   4.500000E-01   4.500000E-01   4.500000E-01   4.500000E-01   4.500000E-01   4.500000E-01   4.500000E-01   4.500000E-01   4.500000E-01   4.500000E-01   4.500000E-01   4.500000E-01   4.500000E-01   4.500000E-01   4.500000E-01   4.500000E-01   4.500000E-01   4.500000E-01   4.500000E-01   4.500000E-01   4.500000E-01   4.500000E-01   4.500000E-01   4.500000E-01   4.500000E-01   4.500000E-01   4.500000E-01   4.500000E-01   4.500000E-01   4.500000E-01   4.500000E-01   4.500000E-01
   3.000000E-01   3.000000E-01   3.000000E-01   3.000000E-01   3.000000E-01   3.000000E-01   3.000000E-01   3.000000E-01   3.000000E-01   3.000000E-01   3.000000E-01   3.000000E-01   3.000000E-01   3.000000E-01   3.000000E-01   3.000000E-01   3.000000E-01   3.000000E-01   3.000000E-01   3.000000E-01   3.000000E-01   3.000000E-01   3.000000E-01   3.000000E-01   3.000000E-01   3.000000E-01   3.000000E-01   3.000000E-01   3.000000E-01   3.000000E-01   3.000000E-01   3.000000E-01   3.000000E-01   3.000000E-01   3.000000E-01   3.000000E-01   3.000000E-01   3.000000E-01   3.000000E-01   3.000000E-01   3.000000E-01   3.000000E-01   3.000000E-01   3.000000E-01   3.000000E-01   3.000000E-01   3.000000E-01   3.000000E-01   3.000000E-01   3.000000E-01   3.000000E-01   3.000000E-01   3.000000E-01   3.000000E-01   3.000000E-01   3.000000E-01   3.000000E-01   3.000000E-01   3.000000E-01   3.000000E-01   3.000000E-01   3.000000E-01   3.000000E-01   3.000000E-01   3.000000E-01   3.000000E-01   3.000000E-01   3.000000E-01   3.000000E-01   3.000000E-01   3.000000E-01   3.000000E-01   3.000000E-01   3.000000E-01   3.000000E-01   3.000000E-01   3.000000E-01   3.000000E-01   3.000000E-01   3.000000E-01   3.000000E-01   3.000000E-01   3.000000E-01   3.000000E-01   3.000000E-01   3.000000E-01   3.000000E-01   3.000000E-01   3.000000E-01   3.000000E-01   3.000000E-01   3.000000E-01   3.000000E-01   3.000000E-01   3.000000E-01   3.000000E-01   3.000000E-01   3.000000E-01   3.000000E-01
   6.000000E-01   6.000000E-01   6.000000E-01   6.000000E-01   6.000000E-01   6.000000E-01   6.000000E-01   6.000000E-01   6.000000E-01   6.000000E-01   6.000000E-01   6.000000E-01   6.000000E-01   6.000000E-01   6.000000E-01   6.000000E-01   6.000000E-01   6.000000E-01   6.000000E-01   6.000000E-01   6.000000E-01   6.000000E-01   6.000000E-01   6.000000E-01   6.000000E-01   6.000000E-01   6.000000E-01   6.000000E-01   6.000000E-01   6.000000E-01   6.000000E-01   6.000000E-01   6.000000E-01   6.000000E-01   6.000000E-01   6.000000E-01   6.000000E-01   6.000000E-01   6.000000E-01   6.000000E-01   6.000000E-01   6.000000E-01   6.000000E-01   6.000000E-01   6.000000E-01   6.000000E-01   6.000000E-01   6.000000E-01   6.000000E-01   6.000000E-01   6.000000E-01   6.000000E-01   6.000000E-01   6.000000E-01   6.000000E-01   6.000000E-01   6.000000E-01   6.000000E-01   6.000000E-01   6.000000E-01   6.000000E-01   6.000000E-01   6.000000E-01   6.000000E-01   6.000000E-01   6.000000E-01   6.000000E-01   6.000000E-01   6.000000E-01   6.000000E-01   6.000000E-01   6.000000E-01   6.000000E-01   6.000000E-01   6.000000E-01   6.000000E-01   6.000000E-01   6.000000E-01   6.000000E-01   6.000000E-01   6.000000E-01   6.000000E-01   6.000000E-01   6.000000E-01   6.000000E-01   6.000000E-01   6.000000E-01   6.000000E-01   6.000000E-01   6.000000E-01   6.000000E-01   6.000000E-01   6.000000E-01   6.000000E-01   6.000000E-01   6.000000E-01   6.000000E-01   6.000000E-01   6.000000E-01
   6.000000E-01   6.000000E-01   6.000000E-01   6.000000E-01   6.000000E-01   6.000000E-01   6.000000E-01   6.000000E-01   6.000000E-01   6.000000E-01   6.000000E-01   6.000000E-01   6.000000E-01   6.000000E-01   6.000000E-01   6.000000E-01   6.000000E-01   6.000000E-01   6.000000E-01   6.000000E-01   6.000000E-01   6.000000E-01   6.000000E-01   6.000000E-01   6.000000E-01   6.000000E-01   6.000000E-01   6.000000E-01   6.000000E-01   6.000000E-01   6.000000E-01   6.000000E-01   6.000000E-01   6.000000E-01   6.000000E-01   6.000000E-01   6.000000E-01   6.000000E-01   6.000000E-01   6.000000E-01   6.000000E-01   6.000000E-01   6.000000E-01   6.000000E-01   6.000000E-01   6.000000E-01   6.000000E-01   6.000000E-01   6.000000E-01   6.000000E-01   6.000000E-01   6.000000E-01   6.000000E-01   6.000000E-01   6.000000E-01   6.000000E-01   6.000000E-01   6.000000E-01   6.000000E-01   6.000000E-01   6.000000E-01   6.000000E-01   6.000000E-01   6.000000E-01   6.000000E-01   6.000000E-01   6.000000E-01   6.000000E-01   6.000000E-01   6.000000E-01   6.000000E-01   6.000000E-01   6.000000E-01   6.000000E-01   6.000000E-01   6.000000E-01   6.000000E-01   6.000000E-01   6.000000E-01   6.000000E-01   6.000000E-01   6.000000E-01   6.000000E-01   6.000000E-01   6.000000E-01   6.000000E-01   6.000000E-01   6.000000E-01   6.000000E-01   6.000000E-01   6.000000E-01   6.000000E-01   6.000000E-01   6.000000E-01   6.000000E-01   6.000000E-01   6.000000E-01   6.000000E-01   6.000000E-01